# generated using pymatgen
data_Si42H2O85
_symmetry_space_group_name_H-M   'P 1'
_cell_length_a   13.60370948
_cell_length_b   27.00625233
_cell_length_c   92.77040188
_cell_angle_alpha   120.51314596
_cell_angle_beta   90.00000000
_cell_angle_gamma   90.00000000
_symmetry_Int_Tables_number   1
_chemical_formula_structural   Si42H2O85
_chemical_formula_sum   'Si336 H16 O680'
_cell_volume   29362.4834899
_cell_formula_units_Z   8
loop_
 _symmetry_equiv_pos_site_id
 _symmetry_equiv_pos_as_xyz
  1  'x, y, z'
loop_
 _atom_site_type_symbol
 _atom_site_label
 _atom_site_symmetry_multiplicity
 _atom_site_fract_x
 _atom_site_fract_y
 _atom_site_fract_z
 _atom_site_occupancy
  O  O1  1  0.330440  0.608616  0.072262  1
  O  O2  1  0.669381  0.608611  0.072264  1
  O  O3  1  0.169356  0.108612  0.072262  1
  O  O4  1  0.830414  0.108607  0.072264  1
  O  O5  1  0.168956  0.192719  0.150690  1
  O  O6  1  0.168956  0.692719  0.271529  1
  O  O7  1  0.135002  0.304685  0.167423  1
  O  O8  1  0.135002  0.804685  0.288263  1
  O  O9  1  0.133859  0.097804  0.151262  1
  O  O10  1  0.133859  0.597804  0.272102  1
  O  O11  1  0.365965  0.402294  0.240258  1
  O  O12  1  0.365965  0.902294  0.119418  1
  O  O13  1  0.305822  0.111796  0.143863  1
  O  O14  1  0.305822  0.611796  0.264703  1
  O  O15  1  0.194005  0.388302  0.247656  1
  O  O16  1  0.194005  0.888302  0.126817  1
  O  O17  1  0.160766  0.096718  0.124437  1
  O  O18  1  0.160766  0.596718  0.245276  1
  O  O19  1  0.169381  0.391481  0.198417  1
  O  O20  1  0.169381  0.891481  0.077578  1
  O  O21  1  0.132514  0.409484  0.174105  1
  O  O22  1  0.132514  0.909484  0.294944  1
  O  O23  1  0.499915  0.444716  0.230249  1
  O  O24  1  0.499915  0.944716  0.109410  1
  O  O25  1  0.127717  0.490755  0.261158  1
  O  O26  1  0.127717  0.990756  0.140318  1
  O  O27  1  0.372108  0.009342  0.130361  1
  O  O28  1  0.372108  0.509342  0.251200  1
  O  O29  1  0.305488  0.441837  0.222178  1
  O  O30  1  0.305488  0.941837  0.101338  1
  O  O31  1  0.499915  0.087433  0.145040  1
  O  O32  1  0.499915  0.587433  0.265879  1
  O  O33  1  0.133335  0.428874  0.229821  1
  O  O34  1  0.133335  0.928874  0.108982  1
  O  O35  1  0.366489  0.071221  0.161697  1
  O  O36  1  0.366489  0.571221  0.282537  1
  O  O37  1  0.158870  0.498100  0.219457  1
  O  O38  1  0.158870  0.998100  0.098617  1
  O  O39  1  0.194339  0.058257  0.169341  1
  O  O40  1  0.194339  0.558257  0.290180  1
  O  O41  1  0.136172  0.250047  0.135340  1
  O  O42  1  0.136172  0.750047  0.256179  1
  O  O43  1  0.805488  0.058255  0.169343  1
  O  O44  1  0.805488  0.558255  0.290183  1
  O  O45  1  -0.000000  0.233829  0.150635  1
  O  O46  1  -0.000000  0.733829  0.271474  1
  O  O47  1  0.830867  0.192714  0.150692  1
  O  O48  1  0.830867  0.692714  0.271531  1
  O  O49  1  0.864809  0.304681  0.167425  1
  O  O50  1  0.864809  0.804680  0.288265  1
  O  O51  1  0.633859  0.402288  0.240259  1
  O  O52  1  0.633859  0.902289  0.119420  1
  O  O53  1  0.865965  0.097798  0.151264  1
  O  O54  1  0.865965  0.597798  0.272103  1
  O  O55  1  0.805823  0.388296  0.247658  1
  O  O56  1  0.805823  0.888296  0.126818  1
  O  O57  1  0.694005  0.111790  0.143865  1
  O  O58  1  0.694005  0.611790  0.264704  1
  O  O59  1  0.839063  0.096713  0.124438  1
  O  O60  1  0.839063  0.596713  0.245278  1
  O  O61  1  0.830439  0.391477  0.198420  1
  O  O62  1  0.830439  0.891477  0.077580  1
  O  O63  1  0.867274  0.409479  0.174106  1
  O  O64  1  0.867274  0.909479  0.294946  1
  O  O65  1  -0.000000  0.372674  0.184864  1
  O  O66  1  -0.000000  0.872674  0.305703  1
  O  O67  1  -0.000000  0.056684  0.108775  1
  O  O68  1  -0.000000  0.556684  0.229615  1
  O  O69  1  0.627716  0.009337  0.130363  1
  O  O70  1  0.627716  0.509337  0.251203  1
  O  O71  1  0.872108  0.490750  0.261160  1
  O  O72  1  0.872108  0.990750  0.140321  1
  O  O73  1  0.694338  0.441836  0.222181  1
  O  O74  1  0.694338  0.941836  0.101341  1
  O  O75  1  -0.000000  0.412659  0.246481  1
  O  O76  1  -0.000000  0.912659  0.125642  1
  O  O77  1  0.633335  0.071219  0.161700  1
  O  O78  1  0.633335  0.571219  0.282539  1
  O  O79  1  0.866489  0.428872  0.229824  1
  O  O80  1  0.866489  0.928872  0.108984  1
  O  O81  1  0.840958  0.498095  0.219458  1
  O  O82  1  0.840958  0.998095  0.098619  1
  O  O83  1  0.863623  0.250045  0.135341  1
  O  O84  1  0.863623  0.750045  0.256181  1
  O  O85  1  0.000000  0.055376  0.161272  1
  O  O86  1  -0.000000  0.555376  0.282112  1
  O  O87  1  0.363623  0.250048  0.256180  1
  O  O88  1  0.363623  0.750048  0.135340  1
  O  O89  1  0.499888  0.233832  0.271476  1
  O  O90  1  0.499888  0.733833  0.150636  1
  O  O91  1  0.330867  0.307378  0.240829  1
  O  O92  1  0.330867  0.807378  0.119990  1
  O  O93  1  0.330840  0.192722  0.271531  1
  O  O94  1  0.330840  0.692722  0.150692  1
  O  O95  1  0.364809  0.195411  0.224096  1
  O  O96  1  0.364809  0.695412  0.103256  1
  O  O97  1  0.364792  0.304689  0.288264  1
  O  O98  1  0.364792  0.804688  0.167424  1
  O  O99  1  0.339062  0.403378  0.267083  1
  O  O100  1  0.339062  0.903379  0.146243  1
  O  O101  1  0.339028  0.096723  0.245277  1
  O  O102  1  0.339028  0.596723  0.124438  1
  O  O103  1  0.330440  0.108616  0.193101  1
  O  O104  1  0.330440  0.608616  0.313941  1
  O  O105  1  0.330414  0.391486  0.077579  1
  O  O106  1  0.330414  0.891486  0.198418  1
  O  O107  1  0.367275  0.090614  0.217415  1
  O  O108  1  0.367275  0.590614  0.096576  1
  O  O109  1  0.367281  0.409488  0.294945  1
  O  O110  1  0.367281  0.909488  0.174105  1
  O  O111  1  0.499889  0.372678  0.305704  1
  O  O112  1  0.499889  0.872678  0.184864  1
  O  O113  1  0.499906  0.127419  0.206658  1
  O  O114  1  0.499906  0.627418  0.085818  1
  O  O115  1  0.499912  0.443408  0.282746  1
  O  O116  1  0.499912  0.943408  0.161906  1
  O  O117  1  0.340959  0.001997  0.172063  1
  O  O118  1  0.340959  0.501997  0.292902  1
  O  O119  1  0.340928  0.498104  0.098618  1
  O  O120  1  0.340928  0.998104  0.219458  1
  O  O121  1  0.499907  0.266263  0.240886  1
  O  O122  1  0.499907  0.766263  0.120047  1
  O  O123  1  0.499884  0.056690  0.229616  1
  O  O124  1  0.499884  0.556691  0.108776  1
  O  O125  1  0.636172  0.250045  0.256182  1
  O  O126  1  0.636172  0.750045  0.135342  1
  O  O127  1  0.668927  0.192717  0.271533  1
  O  O128  1  0.668927  0.692717  0.150694  1
  O  O129  1  0.668956  0.307374  0.240831  1
  O  O130  1  0.668956  0.807373  0.119992  1
  O  O131  1  0.634986  0.304684  0.288266  1
  O  O132  1  0.634986  0.804685  0.167426  1
  O  O133  1  0.635003  0.195407  0.224098  1
  O  O134  1  0.635003  0.695407  0.103258  1
  O  O135  1  0.660734  0.096718  0.245279  1
  O  O136  1  0.660734  0.596719  0.124439  1
  O  O137  1  0.660767  0.403374  0.267085  1
  O  O138  1  0.660767  0.903374  0.146245  1
  O  O139  1  0.669355  0.391481  0.077581  1
  O  O140  1  0.669355  0.891481  0.198420  1
  O  O141  1  0.669381  0.108611  0.193104  1
  O  O142  1  0.669381  0.608611  0.313943  1
  O  O143  1  0.632520  0.409483  0.294946  1
  O  O144  1  0.632520  0.909483  0.174107  1
  O  O145  1  0.632514  0.090610  0.217417  1
  O  O146  1  0.632514  0.590610  0.096577  1
  O  O147  1  0.658835  0.498100  0.098620  1
  O  O148  1  0.658835  0.998100  0.219460  1
  O  O149  1  0.658869  0.001993  0.172064  1
  O  O150  1  0.658869  0.501993  0.292904  1
  O  O151  1  0.168927  0.307376  0.119988  1
  O  O152  1  0.168927  0.807376  0.240828  1
  O  O153  1  0.134987  0.195409  0.103256  1
  O  O154  1  0.134987  0.695409  0.224095  1
  O  O155  1  0.133830  0.402295  0.119418  1
  O  O156  1  0.133830  0.902295  0.240257  1
  O  O157  1  0.365936  0.097803  0.272102  1
  O  O158  1  0.365936  0.597803  0.151262  1
  O  O159  1  0.305790  0.388302  0.126816  1
  O  O160  1  0.305790  0.888302  0.247656  1
  O  O161  1  0.193973  0.111798  0.264704  1
  O  O162  1  0.193973  0.611798  0.143864  1
  O  O163  1  0.160732  0.403374  0.146242  1
  O  O164  1  0.160732  0.903374  0.267082  1
  O  O165  1  0.169356  0.108612  0.313941  1
  O  O166  1  0.169356  0.608612  0.193101  1
  O  O167  1  0.132521  0.090609  0.096575  1
  O  O168  1  0.132521  0.590610  0.217414  1
  O  O169  1  0.194308  0.441841  0.101339  1
  O  O170  1  0.194308  0.941841  0.222178  1
  O  O171  1  0.127687  0.009344  0.251200  1
  O  O172  1  0.127687  0.509343  0.130361  1
  O  O173  1  0.372079  0.490754  0.140318  1
  O  O174  1  0.372079  0.990755  0.261158  1
  O  O175  1  0.305456  0.058253  0.290180  1
  O  O176  1  0.305456  0.558254  0.169340  1
  O  O177  1  0.499880  0.412659  0.125641  1
  O  O178  1  0.499880  0.912658  0.246481  1
  O  O179  1  0.133306  0.071219  0.282537  1
  O  O180  1  0.133306  0.571219  0.161697  1
  O  O181  1  0.366460  0.428876  0.108982  1
  O  O182  1  0.366460  0.928876  0.229822  1
  O  O183  1  0.158835  0.001993  0.292901  1
  O  O184  1  0.158835  0.501993  0.172062  1
  O  O185  1  0.499880  0.055375  0.282112  1
  O  O186  1  0.499880  0.555375  0.161272  1
  O  O187  1  -0.000000  0.266260  0.120045  1
  O  O188  1  -0.000000  0.766260  0.240885  1
  O  O189  1  0.830840  0.307371  0.119990  1
  O  O190  1  0.830840  0.807371  0.240830  1
  O  O191  1  0.864792  0.195404  0.103257  1
  O  O192  1  0.864792  0.695404  0.224097  1
  O  O193  1  0.633830  0.097798  0.272103  1
  O  O194  1  0.633830  0.597798  0.151264  1
  O  O195  1  0.865937  0.402289  0.119420  1
  O  O196  1  0.865937  0.902289  0.240259  1
  O  O197  1  0.805790  0.111792  0.264705  1
  O  O198  1  0.805790  0.611792  0.143866  1
  O  O199  1  0.693973  0.388295  0.126817  1
  O  O200  1  0.693973  0.888294  0.247657  1
  O  O201  1  0.839028  0.403369  0.146244  1
  O  O202  1  0.839028  0.903370  0.267084  1
  O  O203  1  0.830414  0.108607  0.313943  1
  O  O204  1  0.830414  0.608607  0.193103  1
  O  O205  1  -0.000000  0.127415  0.085817  1
  O  O206  1  -0.000000  0.627415  0.206657  1
  O  O207  1  0.805456  0.441839  0.101341  1
  O  O208  1  0.805456  0.941839  0.222181  1
  O  O209  1  0.627687  0.490749  0.140321  1
  O  O210  1  0.627687  0.990749  0.261160  1
  O  O211  1  0.872079  0.009338  0.251203  1
  O  O212  1  0.872079  0.509338  0.130363  1
  O  O213  1  0.694307  0.058252  0.290182  1
  O  O214  1  0.694307  0.558252  0.169343  1
  O  O215  1  -0.000000  0.087435  0.265880  1
  O  O216  1  0.000000  0.587434  0.145040  1
  O  O217  1  0.633307  0.428874  0.108985  1
  O  O218  1  0.633307  0.928874  0.229824  1
  O  O219  1  0.866460  0.071217  0.282539  1
  O  O220  1  0.866460  0.571217  0.161700  1
  O  O221  1  -0.000000  0.444718  0.109410  1
  O  O222  1  -0.000000  0.944718  0.230249  1
  O  O223  1  0.840926  0.001988  0.292903  1
  O  O224  1  0.840926  0.501988  0.172064  1
  O  O225  1  0.867281  0.090606  0.096577  1
  O  O226  1  0.867281  0.590606  0.217416  1
  O  O227  1  -0.000000  0.443403  0.161905  1
  O  O228  1  -0.000000  0.943403  0.282745  1
  O  O229  1  0.168956  0.192719  0.392369  1
  O  O230  1  0.168956  0.692719  0.513208  1
  O  O231  1  0.135002  0.304685  0.409102  1
  O  O232  1  0.135002  0.804685  0.529942  1
  O  O233  1  0.133859  0.097804  0.392941  1
  O  O234  1  0.133859  0.597804  0.513781  1
  O  O235  1  0.365965  0.402294  0.481937  1
  O  O236  1  0.365965  0.902294  0.361097  1
  O  O237  1  0.305822  0.111796  0.385542  1
  O  O238  1  0.305822  0.611796  0.506382  1
  O  O239  1  0.194005  0.388303  0.489335  1
  O  O240  1  0.194005  0.888302  0.368496  1
  O  O241  1  0.160766  0.096718  0.366116  1
  O  O242  1  0.160766  0.596718  0.486955  1
  O  O243  1  0.169381  0.391481  0.440096  1
  O  O244  1  0.169381  0.891481  0.319257  1
  O  O245  1  0.132514  0.409484  0.415784  1
  O  O246  1  0.132514  0.909484  0.536623  1
  O  O247  1  0.499915  0.444716  0.471928  1
  O  O248  1  0.499915  0.944716  0.351089  1
  O  O249  1  0.127717  0.490756  0.502837  1
  O  O250  1  0.127717  0.990756  0.381997  1
  O  O251  1  0.372108  0.009342  0.372040  1
  O  O252  1  0.372108  0.509342  0.492879  1
  O  O253  1  0.305488  0.441838  0.463857  1
  O  O254  1  0.305488  0.941837  0.343017  1
  O  O255  1  0.499915  0.087433  0.386719  1
  O  O256  1  0.499915  0.587433  0.507558  1
  O  O257  1  0.133335  0.428874  0.471500  1
  O  O258  1  0.133335  0.928874  0.350661  1
  O  O259  1  0.366489  0.071221  0.403376  1
  O  O260  1  0.366489  0.571221  0.524216  1
  O  O261  1  0.158870  0.498099  0.461136  1
  O  O262  1  0.158870  0.998100  0.340296  1
  O  O263  1  0.194339  0.058257  0.411020  1
  O  O264  1  0.194339  0.558256  0.531859  1
  O  O265  1  0.136172  0.250047  0.377018  1
  O  O266  1  0.136172  0.750047  0.497858  1
  O  O267  1  0.805488  0.058254  0.411022  1
  O  O268  1  0.805488  0.558254  0.531861  1
  O  O269  1  -0.000000  0.233829  0.392314  1
  O  O270  1  -0.000000  0.733829  0.513153  1
  O  O271  1  0.830867  0.192714  0.392371  1
  O  O272  1  0.830867  0.692714  0.513210  1
  O  O273  1  0.864809  0.304680  0.409104  1
  O  O274  1  0.864809  0.804680  0.529944  1
  O  O275  1  0.633859  0.402289  0.481938  1
  O  O276  1  0.633859  0.902289  0.361099  1
  O  O277  1  0.865965  0.097798  0.392943  1
  O  O278  1  0.865965  0.597798  0.513782  1
  O  O279  1  0.805823  0.388296  0.489337  1
  O  O280  1  0.805823  0.888296  0.368497  1
  O  O281  1  0.694005  0.111790  0.385544  1
  O  O282  1  0.694005  0.611789  0.506383  1
  O  O283  1  0.839063  0.096713  0.366117  1
  O  O284  1  0.839063  0.596713  0.486957  1
  O  O285  1  0.830439  0.391477  0.440099  1
  O  O286  1  0.830439  0.891477  0.319259  1
  O  O287  1  0.867274  0.409479  0.415785  1
  O  O288  1  0.867274  0.909479  0.536624  1
  O  O289  1  -0.000000  0.372674  0.426543  1
  O  O290  1  0.000000  0.872674  0.547382  1
  O  O291  1  -0.000000  0.056684  0.350454  1
  O  O292  1  -0.000000  0.556684  0.471293  1
  O  O293  1  0.627716  0.009337  0.372042  1
  O  O294  1  0.627716  0.509337  0.492882  1
  O  O295  1  0.872108  0.490750  0.502839  1
  O  O296  1  0.872108  0.990750  0.382000  1
  O  O297  1  0.694338  0.441836  0.463860  1
  O  O298  1  0.694338  0.941836  0.343020  1
  O  O299  1  -0.000000  0.412660  0.488160  1
  O  O300  1  -0.000000  0.912659  0.367321  1
  O  O301  1  0.633335  0.071219  0.403379  1
  O  O302  1  0.633335  0.571219  0.524218  1
  O  O303  1  0.866489  0.428872  0.471503  1
  O  O304  1  0.866489  0.928871  0.350663  1
  O  O305  1  0.840958  0.498095  0.461137  1
  O  O306  1  0.840958  0.998095  0.340298  1
  O  O307  1  0.863623  0.250045  0.377020  1
  O  O308  1  0.863623  0.750045  0.497860  1
  O  O309  1  0.000000  0.055376  0.402951  1
  O  O310  1  -0.000000  0.555376  0.523790  1
  O  O311  1  0.363623  0.250048  0.497859  1
  O  O312  1  0.363623  0.750048  0.377019  1
  O  O313  1  0.499888  0.233832  0.513155  1
  O  O314  1  0.499888  0.733832  0.392315  1
  O  O315  1  0.330867  0.307378  0.482508  1
  O  O316  1  0.330867  0.807378  0.361669  1
  O  O317  1  0.330840  0.192722  0.513210  1
  O  O318  1  0.330840  0.692722  0.392371  1
  O  O319  1  0.364809  0.195411  0.465775  1
  O  O320  1  0.364809  0.695412  0.344935  1
  O  O321  1  0.364792  0.304688  0.529943  1
  O  O322  1  0.364792  0.804689  0.409103  1
  O  O323  1  0.339062  0.403378  0.508762  1
  O  O324  1  0.339062  0.903379  0.387922  1
  O  O325  1  0.339028  0.096723  0.486956  1
  O  O326  1  0.339028  0.596723  0.366116  1
  O  O327  1  0.330440  0.108616  0.434780  1
  O  O328  1  0.330440  0.608616  0.555620  1
  O  O329  1  0.330414  0.391486  0.319258  1
  O  O330  1  0.330414  0.891486  0.440097  1
  O  O331  1  0.367275  0.090614  0.459094  1
  O  O332  1  0.367275  0.590614  0.338255  1
  O  O333  1  0.367281  0.409487  0.536624  1
  O  O334  1  0.367281  0.909488  0.415784  1
  O  O335  1  0.499889  0.372678  0.547383  1
  O  O336  1  0.499889  0.872678  0.426543  1
  O  O337  1  0.499906  0.127418  0.448337  1
  O  O338  1  0.499906  0.627418  0.327497  1
  O  O339  1  0.499912  0.443408  0.524425  1
  O  O340  1  0.499912  0.943408  0.403585  1
  O  O341  1  0.340959  0.001997  0.413742  1
  O  O342  1  0.340959  0.501997  0.534581  1
  O  O343  1  0.340928  0.498104  0.340297  1
  O  O344  1  0.340928  0.998104  0.461137  1
  O  O345  1  0.499907  0.266263  0.482565  1
  O  O346  1  0.499907  0.766263  0.361726  1
  O  O347  1  0.499884  0.056691  0.471295  1
  O  O348  1  0.499884  0.556690  0.350455  1
  O  O349  1  0.636172  0.250044  0.497861  1
  O  O350  1  0.636172  0.750045  0.377021  1
  O  O351  1  0.668927  0.192717  0.513212  1
  O  O352  1  0.668927  0.692717  0.392372  1
  O  O353  1  0.668956  0.307373  0.482510  1
  O  O354  1  0.668956  0.807373  0.361671  1
  O  O355  1  0.634986  0.304685  0.529945  1
  O  O356  1  0.634986  0.804685  0.409105  1
  O  O357  1  0.635003  0.195407  0.465777  1
  O  O358  1  0.635003  0.695407  0.344937  1
  O  O359  1  0.660734  0.096718  0.486958  1
  O  O360  1  0.660734  0.596719  0.366118  1
  O  O361  1  0.660767  0.403374  0.508764  1
  O  O362  1  0.660767  0.903374  0.387924  1
  O  O363  1  0.669355  0.391481  0.319260  1
  O  O364  1  0.669355  0.891481  0.440099  1
  O  O365  1  0.669381  0.108611  0.434783  1
  O  O366  1  0.669381  0.608611  0.555622  1
  O  O367  1  0.632520  0.409483  0.536625  1
  O  O368  1  0.632520  0.909483  0.415786  1
  O  O369  1  0.632514  0.090610  0.459096  1
  O  O370  1  0.632514  0.590610  0.338256  1
  O  O371  1  0.658835  0.498100  0.340299  1
  O  O372  1  0.658835  0.998100  0.461139  1
  O  O373  1  0.658869  0.001993  0.413743  1
  O  O374  1  0.658869  0.501993  0.534583  1
  O  O375  1  0.168927  0.307376  0.361667  1
  O  O376  1  0.168927  0.807376  0.482507  1
  O  O377  1  0.134987  0.195408  0.344935  1
  O  O378  1  0.134987  0.695409  0.465774  1
  O  O379  1  0.133830  0.402295  0.361097  1
  O  O380  1  0.133830  0.902295  0.481936  1
  O  O381  1  0.365936  0.097804  0.513781  1
  O  O382  1  0.365936  0.597803  0.392941  1
  O  O383  1  0.305790  0.388302  0.368495  1
  O  O384  1  0.305790  0.888302  0.489335  1
  O  O385  1  0.193973  0.111798  0.506383  1
  O  O386  1  0.193973  0.611798  0.385543  1
  O  O387  1  0.160732  0.403375  0.387921  1
  O  O388  1  0.160732  0.903374  0.508761  1
  O  O389  1  0.169356  0.108612  0.555620  1
  O  O390  1  0.169356  0.608612  0.434780  1
  O  O391  1  0.132521  0.090610  0.338254  1
  O  O392  1  0.132521  0.590610  0.459093  1
  O  O393  1  0.194308  0.441842  0.343018  1
  O  O394  1  0.194308  0.941841  0.463857  1
  O  O395  1  0.127687  0.009343  0.492879  1
  O  O396  1  0.127687  0.509343  0.372040  1
  O  O397  1  0.372079  0.490754  0.381997  1
  O  O398  1  0.372079  0.990754  0.502837  1
  O  O399  1  0.305456  0.058253  0.531859  1
  O  O400  1  0.305456  0.558254  0.411019  1
  O  O401  1  0.499880  0.412659  0.367320  1
  O  O402  1  0.499880  0.912658  0.488160  1
  O  O403  1  0.133306  0.071219  0.524216  1
  O  O404  1  0.133306  0.571219  0.403376  1
  O  O405  1  0.366460  0.428876  0.350661  1
  O  O406  1  0.366460  0.928876  0.471501  1
  O  O407  1  0.158835  0.001993  0.534580  1
  O  O408  1  0.158835  0.501993  0.413741  1
  O  O409  1  0.499880  0.055375  0.523790  1
  O  O410  1  0.499880  0.555375  0.402951  1
  O  O411  1  -0.000000  0.266260  0.361724  1
  O  O412  1  -0.000000  0.766260  0.482564  1
  O  O413  1  0.830840  0.307371  0.361669  1
  O  O414  1  0.830840  0.807371  0.482509  1
  O  O415  1  0.864792  0.195404  0.344936  1
  O  O416  1  0.864792  0.695404  0.465776  1
  O  O417  1  0.633830  0.097798  0.513782  1
  O  O418  1  0.633830  0.597798  0.392943  1
  O  O419  1  0.865937  0.402289  0.361099  1
  O  O420  1  0.865937  0.902289  0.481938  1
  O  O421  1  0.805790  0.111792  0.506384  1
  O  O422  1  0.805790  0.611792  0.385545  1
  O  O423  1  0.693973  0.388294  0.368496  1
  O  O424  1  0.693973  0.888295  0.489336  1
  O  O425  1  0.839028  0.403370  0.387923  1
  O  O426  1  0.839028  0.903369  0.508763  1
  O  O427  1  0.830414  0.108607  0.555622  1
  O  O428  1  0.830414  0.608607  0.434782  1
  O  O429  1  -0.000000  0.127415  0.327496  1
  O  O430  1  0.000000  0.627415  0.448336  1
  O  O431  1  0.805456  0.441839  0.343020  1
  O  O432  1  0.805456  0.941839  0.463860  1
  O  O433  1  0.627687  0.490749  0.382000  1
  O  O434  1  0.627687  0.990749  0.502839  1
  O  O435  1  0.872079  0.009338  0.492882  1
  O  O436  1  0.872079  0.509338  0.372042  1
  O  O437  1  0.694307  0.058252  0.531861  1
  O  O438  1  0.694307  0.558252  0.411022  1
  O  O439  1  -0.000000  0.087435  0.507559  1
  O  O440  1  -0.000000  0.587434  0.386719  1
  O  O441  1  0.633307  0.428874  0.350664  1
  O  O442  1  0.633307  0.928874  0.471503  1
  O  O443  1  0.866460  0.071216  0.524218  1
  O  O444  1  0.866460  0.571216  0.403379  1
  O  O445  1  0.000000  0.444718  0.351089  1
  O  O446  1  0.000000  0.944718  0.471928  1
  O  O447  1  0.840926  0.001988  0.534582  1
  O  O448  1  0.840926  0.501988  0.413743  1
  O  O449  1  0.867281  0.090605  0.338256  1
  O  O450  1  0.867281  0.590606  0.459095  1
  O  O451  1  -0.000000  0.443403  0.403584  1
  O  O452  1  -0.000000  0.943403  0.524424  1
  O  O453  1  0.168956  0.192719  0.634048  1
  O  O454  1  0.168956  0.692719  0.754887  1
  O  O455  1  0.135002  0.304685  0.650781  1
  O  O456  1  0.135002  0.804685  0.771621  1
  O  O457  1  0.133859  0.097804  0.634620  1
  O  O458  1  0.133859  0.597804  0.755460  1
  O  O459  1  0.365965  0.402294  0.723616  1
  O  O460  1  0.365965  0.902294  0.602776  1
  O  O461  1  0.305822  0.111796  0.627221  1
  O  O462  1  0.305822  0.611796  0.748061  1
  O  O463  1  0.194005  0.388303  0.731014  1
  O  O464  1  0.194005  0.888302  0.610175  1
  O  O465  1  0.160766  0.096718  0.607794  1
  O  O466  1  0.160766  0.596718  0.728634  1
  O  O467  1  0.169381  0.391481  0.681775  1
  O  O468  1  0.169381  0.891481  0.560936  1
  O  O469  1  0.132514  0.409484  0.657463  1
  O  O470  1  0.132514  0.909483  0.778302  1
  O  O471  1  0.499915  0.444716  0.713607  1
  O  O472  1  0.499915  0.944716  0.592768  1
  O  O473  1  0.127717  0.490755  0.744516  1
  O  O474  1  0.127717  0.990756  0.623676  1
  O  O475  1  0.372108  0.009342  0.613719  1
  O  O476  1  0.372108  0.509342  0.734558  1
  O  O477  1  0.305488  0.441837  0.705536  1
  O  O478  1  0.305488  0.941838  0.584696  1
  O  O479  1  0.499915  0.087433  0.628398  1
  O  O480  1  0.499915  0.587433  0.749237  1
  O  O481  1  0.133335  0.428874  0.713179  1
  O  O482  1  0.133335  0.928874  0.592340  1
  O  O483  1  0.366489  0.071221  0.645055  1
  O  O484  1  0.366489  0.571221  0.765895  1
  O  O485  1  0.158870  0.498100  0.702815  1
  O  O486  1  0.158870  0.998099  0.581975  1
  O  O487  1  0.194339  0.058257  0.652699  1
  O  O488  1  0.194339  0.558257  0.773538  1
  O  O489  1  0.136172  0.250048  0.618697  1
  O  O490  1  0.136172  0.750047  0.739537  1
  O  O491  1  0.805488  0.058254  0.652701  1
  O  O492  1  0.805488  0.558254  0.773540  1
  O  O493  1  -0.000000  0.233829  0.633992  1
  O  O494  1  0.000000  0.733829  0.754832  1
  O  O495  1  0.830867  0.192714  0.634050  1
  O  O496  1  0.830867  0.692714  0.754889  1
  O  O497  1  0.864809  0.304680  0.650783  1
  O  O498  1  0.864809  0.804680  0.771623  1
  O  O499  1  0.633859  0.402289  0.723617  1
  O  O500  1  0.633859  0.902289  0.602778  1
  O  O501  1  0.865965  0.097798  0.634622  1
  O  O502  1  0.865965  0.597798  0.755461  1
  O  O503  1  0.805823  0.388296  0.731015  1
  O  O504  1  0.805823  0.888296  0.610176  1
  O  O505  1  0.694005  0.111789  0.627223  1
  O  O506  1  0.694005  0.611790  0.748062  1
  O  O507  1  0.839063  0.096713  0.607796  1
  O  O508  1  0.839063  0.596713  0.728636  1
  O  O509  1  0.830439  0.391477  0.681778  1
  O  O510  1  0.830439  0.891477  0.560938  1
  O  O511  1  0.867274  0.409478  0.657464  1
  O  O512  1  0.867274  0.909478  0.778303  1
  O  O513  1  -0.000000  0.372674  0.668222  1
  O  O514  1  0.000000  0.872674  0.789061  1
  O  O515  1  0.000000  0.056684  0.592133  1
  O  O516  1  -0.000000  0.556684  0.712972  1
  O  O517  1  0.627716  0.009337  0.613721  1
  O  O518  1  0.627716  0.509337  0.734561  1
  O  O519  1  0.872108  0.490750  0.744518  1
  O  O520  1  0.872108  0.990750  0.623679  1
  O  O521  1  0.694338  0.441836  0.705539  1
  O  O522  1  0.694338  0.941836  0.584699  1
  O  O523  1  0.000000  0.412660  0.729839  1
  O  O524  1  -0.000000  0.912659  0.609000  1
  O  O525  1  0.633335  0.071219  0.645058  1
  O  O526  1  0.633335  0.571219  0.765897  1
  O  O527  1  0.866489  0.428872  0.713182  1
  O  O528  1  0.866489  0.928872  0.592342  1
  O  O529  1  0.840958  0.498095  0.702816  1
  O  O530  1  0.840958  0.998095  0.581977  1
  O  O531  1  0.863623  0.250044  0.618699  1
  O  O532  1  0.863623  0.750045  0.739539  1
  O  O533  1  0.000000  0.055376  0.644630  1
  O  O534  1  -0.000000  0.555376  0.765469  1
  O  O535  1  0.363623  0.250048  0.739538  1
  O  O536  1  0.363623  0.750048  0.618698  1
  O  O537  1  0.499888  0.233833  0.754834  1
  O  O538  1  0.499888  0.733833  0.633994  1
  O  O539  1  0.330867  0.307378  0.724187  1
  O  O540  1  0.330867  0.807378  0.603348  1
  O  O541  1  0.330840  0.192722  0.754889  1
  O  O542  1  0.330840  0.692722  0.634050  1
  O  O543  1  0.364809  0.195411  0.707454  1
  O  O544  1  0.364809  0.695412  0.586614  1
  O  O545  1  0.364792  0.304688  0.771622  1
  O  O546  1  0.364792  0.804688  0.650782  1
  O  O547  1  0.339062  0.403379  0.750441  1
  O  O548  1  0.339062  0.903378  0.629601  1
  O  O549  1  0.339028  0.096723  0.728635  1
  O  O550  1  0.339028  0.596723  0.607795  1
  O  O551  1  0.330440  0.108616  0.676459  1
  O  O552  1  0.330440  0.608616  0.797299  1
  O  O553  1  0.330414  0.391486  0.560937  1
  O  O554  1  0.330414  0.891486  0.681776  1
  O  O555  1  0.367275  0.090613  0.700773  1
  O  O556  1  0.367275  0.590614  0.579934  1
  O  O557  1  0.367281  0.409488  0.778303  1
  O  O558  1  0.367281  0.909487  0.657463  1
  O  O559  1  0.499889  0.372678  0.789062  1
  O  O560  1  0.499889  0.872678  0.668222  1
  O  O561  1  0.499906  0.127418  0.690015  1
  O  O562  1  0.499906  0.627418  0.569176  1
  O  O563  1  0.499912  0.443408  0.766104  1
  O  O564  1  0.499912  0.943408  0.645264  1
  O  O565  1  0.340959  0.001998  0.655421  1
  O  O566  1  0.340959  0.501997  0.776260  1
  O  O567  1  0.340928  0.498104  0.581976  1
  O  O568  1  0.340928  0.998104  0.702816  1
  O  O569  1  0.499907  0.266263  0.724244  1
  O  O570  1  0.499907  0.766263  0.603405  1
  O  O571  1  0.499884  0.056690  0.712974  1
  O  O572  1  0.499884  0.556690  0.592134  1
  O  O573  1  0.636172  0.250045  0.739540  1
  O  O574  1  0.636172  0.750045  0.618700  1
  O  O575  1  0.668927  0.192717  0.754891  1
  O  O576  1  0.668927  0.692717  0.634051  1
  O  O577  1  0.668956  0.307373  0.724189  1
  O  O578  1  0.668956  0.807374  0.603350  1
  O  O579  1  0.634986  0.304684  0.771624  1
  O  O580  1  0.634986  0.804684  0.650784  1
  O  O581  1  0.635003  0.195407  0.707456  1
  O  O582  1  0.635003  0.695407  0.586616  1
  O  O583  1  0.660734  0.096718  0.728637  1
  O  O584  1  0.660734  0.596719  0.607797  1
  O  O585  1  0.660767  0.403374  0.750442  1
  O  O586  1  0.660767  0.903374  0.629603  1
  O  O587  1  0.669355  0.391481  0.560939  1
  O  O588  1  0.669355  0.891481  0.681778  1
  O  O589  1  0.669381  0.108611  0.676462  1
  O  O590  1  0.669381  0.608611  0.797301  1
  O  O591  1  0.632520  0.409483  0.778304  1
  O  O592  1  0.632520  0.909483  0.657465  1
  O  O593  1  0.632514  0.090610  0.700775  1
  O  O594  1  0.632514  0.590610  0.579935  1
  O  O595  1  0.658835  0.498100  0.581978  1
  O  O596  1  0.658835  0.998100  0.702818  1
  O  O597  1  0.658869  0.001993  0.655422  1
  O  O598  1  0.658869  0.501993  0.776262  1
  O  O599  1  0.168927  0.307376  0.603346  1
  O  O600  1  0.168927  0.807376  0.724186  1
  O  O601  1  0.134987  0.195408  0.586614  1
  O  O602  1  0.134987  0.695408  0.707453  1
  O  O603  1  0.133830  0.402295  0.602776  1
  O  O604  1  0.133830  0.902295  0.723615  1
  O  O605  1  0.365936  0.097803  0.755460  1
  O  O606  1  0.365936  0.597803  0.634620  1
  O  O607  1  0.305790  0.388302  0.610174  1
  O  O608  1  0.305790  0.888302  0.731014  1
  O  O609  1  0.193973  0.111798  0.748062  1
  O  O610  1  0.193973  0.611798  0.627222  1
  O  O611  1  0.160732  0.403374  0.629600  1
  O  O612  1  0.160732  0.903375  0.750440  1
  O  O613  1  0.169356  0.108612  0.797299  1
  O  O614  1  0.169356  0.608612  0.676459  1
  O  O615  1  0.132521  0.090609  0.579933  1
  O  O616  1  0.132521  0.590610  0.700772  1
  O  O617  1  0.194308  0.441841  0.584697  1
  O  O618  1  0.194308  0.941842  0.705536  1
  O  O619  1  0.127687  0.009343  0.734558  1
  O  O620  1  0.127687  0.509343  0.613719  1
  O  O621  1  0.372079  0.490755  0.623676  1
  O  O622  1  0.372079  0.990754  0.744516  1
  O  O623  1  0.305456  0.058253  0.773538  1
  O  O624  1  0.305456  0.558253  0.652698  1
  O  O625  1  0.499880  0.412659  0.608999  1
  O  O626  1  0.499880  0.912658  0.729839  1
  O  O627  1  0.133306  0.071219  0.765895  1
  O  O628  1  0.133306  0.571219  0.645055  1
  O  O629  1  0.366460  0.428876  0.592340  1
  O  O630  1  0.366460  0.928876  0.713180  1
  O  O631  1  0.158835  0.001993  0.776259  1
  O  O632  1  0.158835  0.501993  0.655420  1
  O  O633  1  0.499880  0.055375  0.765469  1
  O  O634  1  0.499880  0.555375  0.644630  1
  O  O635  1  -0.000000  0.266260  0.603403  1
  O  O636  1  0.000000  0.766260  0.724243  1
  O  O637  1  0.830840  0.307371  0.603348  1
  O  O638  1  0.830840  0.807371  0.724188  1
  O  O639  1  0.864792  0.195404  0.586615  1
  O  O640  1  0.864792  0.695404  0.707455  1
  O  O641  1  0.633830  0.097798  0.755461  1
  O  O642  1  0.633830  0.597798  0.634622  1
  O  O643  1  0.865937  0.402289  0.602777  1
  O  O644  1  0.865937  0.902289  0.723617  1
  O  O645  1  0.805790  0.111792  0.748063  1
  O  O646  1  0.805790  0.611792  0.627224  1
  O  O647  1  0.693973  0.388294  0.610175  1
  O  O648  1  0.693973  0.888295  0.731015  1
  O  O649  1  0.839028  0.403370  0.629602  1
  O  O650  1  0.839028  0.903370  0.750442  1
  O  O651  1  0.830414  0.108607  0.797301  1
  O  O652  1  0.830414  0.608607  0.676461  1
  O  O653  1  -0.000000  0.127415  0.569175  1
  O  O654  1  0.000000  0.627415  0.690015  1
  O  O655  1  0.805456  0.441839  0.584699  1
  O  O656  1  0.805456  0.941839  0.705539  1
  O  O657  1  0.627687  0.490749  0.623679  1
  O  O658  1  0.627687  0.990749  0.744518  1
  O  O659  1  0.872079  0.009338  0.734561  1
  O  O660  1  0.872079  0.509338  0.613721  1
  O  O661  1  0.694307  0.058252  0.773540  1
  O  O662  1  0.694307  0.558252  0.652701  1
  O  O663  1  0.000000  0.087434  0.749238  1
  O  O664  1  -0.000000  0.587434  0.628398  1
  O  O665  1  0.633307  0.428874  0.592342  1
  O  O666  1  0.633307  0.928874  0.713182  1
  O  O667  1  0.866460  0.071217  0.765897  1
  O  O668  1  0.866460  0.571216  0.645058  1
  O  O669  1  0.000000  0.444718  0.592768  1
  O  O670  1  -0.000000  0.944718  0.713607  1
  O  O671  1  0.840926  0.001988  0.776261  1
  O  O672  1  0.840926  0.501988  0.655422  1
  O  O673  1  0.867281  0.090606  0.579935  1
  O  O674  1  0.867281  0.590606  0.700774  1
  O  O675  1  0.000000  0.443403  0.645263  1
  O  O676  1  -0.000000  0.943403  0.766103  1
  O  O677  1  0.169381  0.891481  0.802615  1
  O  O678  1  0.830439  0.891477  0.802617  1
  O  O679  1  0.330414  0.391486  0.802616  1
  O  O680  1  0.669355  0.391481  0.802618  1
  Si  Si681  1  0.193623  0.438927  0.217071  1
  Si  Si682  1  0.193623  0.938927  0.096231  1
  Si  Si683  1  0.113509  0.245084  0.151215  1
  Si  Si684  1  0.113509  0.745084  0.272055  1
  Si  Si685  1  0.194081  0.127001  0.143083  1
  Si  Si686  1  0.194081  0.627001  0.263922  1
  Si  Si687  1  0.113267  0.368740  0.181310  1
  Si  Si688  1  0.113267  0.868740  0.302149  1
  Si  Si689  1  0.112360  0.051392  0.156374  1
  Si  Si690  1  0.112360  0.551392  0.277213  1
  Si  Si691  1  0.387466  0.448705  0.235145  1
  Si  Si692  1  0.387466  0.948705  0.114306  1
  Si  Si693  1  0.112445  0.427594  0.246300  1
  Si  Si694  1  0.112445  0.927595  0.125461  1
  Si  Si695  1  0.387382  0.072502  0.145219  1
  Si  Si696  1  0.387382  0.572502  0.266058  1
  Si  Si697  1  0.113864  0.059843  0.106815  1
  Si  Si698  1  0.113864  0.559843  0.227655  1
  Si  Si699  1  0.806202  0.438924  0.217073  1
  Si  Si700  1  0.806202  0.938924  0.096234  1
  Si  Si701  1  0.885958  0.059839  0.106817  1
  Si  Si702  1  0.885958  0.559839  0.227656  1
  Si  Si703  1  0.886303  0.245081  0.151216  1
  Si  Si704  1  0.886303  0.745080  0.272056  1
  Si  Si705  1  0.805746  0.126995  0.143084  1
  Si  Si706  1  0.805746  0.626996  0.263924  1
  Si  Si707  1  0.886541  0.368737  0.181311  1
  Si  Si708  1  0.886541  0.868737  0.302151  1
  Si  Si709  1  0.612360  0.448701  0.235147  1
  Si  Si710  1  0.612360  0.948700  0.114308  1
  Si  Si711  1  0.887466  0.051387  0.156376  1
  Si  Si712  1  0.887466  0.551387  0.277215  1
  Si  Si713  1  0.612445  0.072498  0.145221  1
  Si  Si714  1  0.612445  0.572498  0.266060  1
  Si  Si715  1  0.887382  0.427590  0.246302  1
  Si  Si716  1  0.887382  0.927590  0.125463  1
  Si  Si717  1  0.306173  0.438932  0.096232  1
  Si  Si718  1  0.306173  0.938932  0.217071  1
  Si  Si719  1  0.306202  0.061168  0.174448  1
  Si  Si720  1  0.306202  0.561169  0.295288  1
  Si  Si721  1  0.386303  0.255012  0.240305  1
  Si  Si722  1  0.386303  0.755012  0.119465  1
  Si  Si723  1  0.386286  0.245086  0.272056  1
  Si  Si724  1  0.386286  0.745086  0.151216  1
  Si  Si725  1  0.305746  0.373096  0.248437  1
  Si  Si726  1  0.305746  0.873097  0.127597  1
  Si  Si727  1  0.305715  0.127004  0.263923  1
  Si  Si728  1  0.305715  0.627004  0.143084  1
  Si  Si729  1  0.386541  0.131356  0.210210  1
  Si  Si730  1  0.386541  0.631356  0.089370  1
  Si  Si731  1  0.386527  0.368744  0.302150  1
  Si  Si732  1  0.386527  0.868744  0.181311  1
  Si  Si733  1  0.385958  0.440253  0.284704  1
  Si  Si734  1  0.385958  0.940253  0.163865  1
  Si  Si735  1  0.385931  0.059848  0.227656  1
  Si  Si736  1  0.385931  0.559848  0.106817  1
  Si  Si737  1  0.613864  0.440249  0.284706  1
  Si  Si738  1  0.613864  0.940250  0.163866  1
  Si  Si739  1  0.613838  0.059844  0.227657  1
  Si  Si740  1  0.613838  0.559845  0.106818  1
  Si  Si741  1  0.693623  0.061165  0.174450  1
  Si  Si742  1  0.693623  0.561165  0.295290  1
  Si  Si743  1  0.693593  0.438929  0.096234  1
  Si  Si744  1  0.693593  0.938929  0.217074  1
  Si  Si745  1  0.613492  0.245084  0.272057  1
  Si  Si746  1  0.613492  0.745084  0.151218  1
  Si  Si747  1  0.613509  0.255008  0.240306  1
  Si  Si748  1  0.613509  0.755008  0.119467  1
  Si  Si749  1  0.694049  0.126998  0.263925  1
  Si  Si750  1  0.694049  0.626998  0.143085  1
  Si  Si751  1  0.694081  0.373091  0.248438  1
  Si  Si752  1  0.694081  0.873091  0.127599  1
  Si  Si753  1  0.613254  0.368741  0.302151  1
  Si  Si754  1  0.613254  0.868741  0.181312  1
  Si  Si755  1  0.613268  0.131353  0.210211  1
  Si  Si756  1  0.613268  0.631352  0.089372  1
  Si  Si757  1  0.113493  0.255009  0.119464  1
  Si  Si758  1  0.113493  0.755010  0.240303  1
  Si  Si759  1  0.194049  0.373095  0.127596  1
  Si  Si760  1  0.194049  0.873095  0.248436  1
  Si  Si761  1  0.113254  0.131353  0.089370  1
  Si  Si762  1  0.113254  0.631352  0.210209  1
  Si  Si763  1  0.112329  0.448706  0.114306  1
  Si  Si764  1  0.112329  0.948706  0.235145  1
  Si  Si765  1  0.387435  0.051391  0.277213  1
  Si  Si766  1  0.387435  0.551391  0.156374  1
  Si  Si767  1  0.112413  0.072503  0.266059  1
  Si  Si768  1  0.112413  0.572503  0.145219  1
  Si  Si769  1  0.387351  0.427594  0.125461  1
  Si  Si770  1  0.387351  0.927594  0.246300  1
  Si  Si771  1  0.113837  0.440248  0.163864  1
  Si  Si772  1  0.113837  0.940248  0.284703  1
  Si  Si773  1  0.193593  0.061165  0.295287  1
  Si  Si774  1  0.193593  0.561165  0.174448  1
  Si  Si775  1  0.886286  0.255006  0.119465  1
  Si  Si776  1  0.886286  0.755006  0.240305  1
  Si  Si777  1  0.805715  0.373089  0.127598  1
  Si  Si778  1  0.805715  0.873089  0.248437  1
  Si  Si779  1  0.886528  0.131349  0.089371  1
  Si  Si780  1  0.886528  0.631349  0.210211  1
  Si  Si781  1  0.612329  0.051387  0.277215  1
  Si  Si782  1  0.612329  0.551387  0.156376  1
  Si  Si783  1  0.887436  0.448702  0.114308  1
  Si  Si784  1  0.887436  0.948701  0.235147  1
  Si  Si785  1  0.612413  0.427590  0.125462  1
  Si  Si786  1  0.612413  0.927590  0.246302  1
  Si  Si787  1  0.887351  0.072498  0.266061  1
  Si  Si788  1  0.887351  0.572499  0.145221  1
  Si  Si789  1  0.885931  0.440244  0.163865  1
  Si  Si790  1  0.885931  0.940244  0.284705  1
  Si  Si791  1  0.806172  0.061161  0.295290  1
  Si  Si792  1  0.806172  0.561161  0.174450  1
  Si  Si793  1  0.193623  0.438927  0.458750  1
  Si  Si794  1  0.193623  0.938927  0.337910  1
  Si  Si795  1  0.113509  0.245084  0.392894  1
  Si  Si796  1  0.113509  0.745084  0.513734  1
  Si  Si797  1  0.194081  0.127001  0.384762  1
  Si  Si798  1  0.194081  0.627001  0.505601  1
  Si  Si799  1  0.113267  0.368740  0.422989  1
  Si  Si800  1  0.113267  0.868740  0.543828  1
  Si  Si801  1  0.112360  0.051392  0.398053  1
  Si  Si802  1  0.112360  0.551392  0.518892  1
  Si  Si803  1  0.387466  0.448705  0.476824  1
  Si  Si804  1  0.387466  0.948705  0.355985  1
  Si  Si805  1  0.112445  0.427594  0.487979  1
  Si  Si806  1  0.112445  0.927595  0.367140  1
  Si  Si807  1  0.387382  0.072502  0.386898  1
  Si  Si808  1  0.387382  0.572502  0.507737  1
  Si  Si809  1  0.113864  0.059843  0.348494  1
  Si  Si810  1  0.113864  0.559843  0.469334  1
  Si  Si811  1  0.806202  0.438924  0.458752  1
  Si  Si812  1  0.806202  0.938924  0.337913  1
  Si  Si813  1  0.885958  0.059839  0.348496  1
  Si  Si814  1  0.885958  0.559839  0.469335  1
  Si  Si815  1  0.886303  0.245081  0.392895  1
  Si  Si816  1  0.886303  0.745080  0.513735  1
  Si  Si817  1  0.805746  0.126995  0.384763  1
  Si  Si818  1  0.805746  0.626996  0.505603  1
  Si  Si819  1  0.886541  0.368736  0.422990  1
  Si  Si820  1  0.886541  0.868736  0.543830  1
  Si  Si821  1  0.612360  0.448701  0.476826  1
  Si  Si822  1  0.612360  0.948700  0.355987  1
  Si  Si823  1  0.887466  0.051387  0.398055  1
  Si  Si824  1  0.887466  0.551387  0.518894  1
  Si  Si825  1  0.612445  0.072498  0.386900  1
  Si  Si826  1  0.612445  0.572498  0.507739  1
  Si  Si827  1  0.887382  0.427590  0.487981  1
  Si  Si828  1  0.887382  0.927590  0.367142  1
  Si  Si829  1  0.306173  0.438931  0.337911  1
  Si  Si830  1  0.306173  0.938932  0.458750  1
  Si  Si831  1  0.306202  0.061168  0.416127  1
  Si  Si832  1  0.306202  0.561168  0.536967  1
  Si  Si833  1  0.386303  0.255011  0.481984  1
  Si  Si834  1  0.386303  0.755011  0.361144  1
  Si  Si835  1  0.386286  0.245086  0.513735  1
  Si  Si836  1  0.386286  0.745087  0.392895  1
  Si  Si837  1  0.305746  0.373096  0.490116  1
  Si  Si838  1  0.305746  0.873097  0.369276  1
  Si  Si839  1  0.305715  0.127003  0.505602  1
  Si  Si840  1  0.305715  0.627003  0.384763  1
  Si  Si841  1  0.386541  0.131356  0.451889  1
  Si  Si842  1  0.386541  0.631355  0.331049  1
  Si  Si843  1  0.386527  0.368744  0.543829  1
  Si  Si844  1  0.386527  0.868744  0.422990  1
  Si  Si845  1  0.385958  0.440253  0.526383  1
  Si  Si846  1  0.385958  0.940253  0.405544  1
  Si  Si847  1  0.385931  0.059848  0.469335  1
  Si  Si848  1  0.385931  0.559848  0.348496  1
  Si  Si849  1  0.613864  0.440250  0.526385  1
  Si  Si850  1  0.613864  0.940249  0.405545  1
  Si  Si851  1  0.613838  0.059844  0.469336  1
  Si  Si852  1  0.613838  0.559844  0.348497  1
  Si  Si853  1  0.693623  0.061165  0.416129  1
  Si  Si854  1  0.693623  0.561165  0.536969  1
  Si  Si855  1  0.693593  0.438929  0.337913  1
  Si  Si856  1  0.693593  0.938929  0.458753  1
  Si  Si857  1  0.613492  0.245083  0.513736  1
  Si  Si858  1  0.613492  0.745083  0.392897  1
  Si  Si859  1  0.613509  0.255009  0.481985  1
  Si  Si860  1  0.613509  0.755008  0.361146  1
  Si  Si861  1  0.694049  0.126998  0.505604  1
  Si  Si862  1  0.694049  0.626998  0.384764  1
  Si  Si863  1  0.694081  0.373091  0.490117  1
  Si  Si864  1  0.694081  0.873091  0.369278  1
  Si  Si865  1  0.613254  0.368741  0.543830  1
  Si  Si866  1  0.613254  0.868741  0.422991  1
  Si  Si867  1  0.613268  0.131353  0.451890  1
  Si  Si868  1  0.613268  0.631352  0.331051  1
  Si  Si869  1  0.113493  0.255010  0.361143  1
  Si  Si870  1  0.113493  0.755010  0.481982  1
  Si  Si871  1  0.194049  0.373095  0.369275  1
  Si  Si872  1  0.194049  0.873095  0.490115  1
  Si  Si873  1  0.113254  0.131353  0.331049  1
  Si  Si874  1  0.113254  0.631352  0.451888  1
  Si  Si875  1  0.112329  0.448706  0.355985  1
  Si  Si876  1  0.112329  0.948706  0.476824  1
  Si  Si877  1  0.387435  0.051391  0.518892  1
  Si  Si878  1  0.387435  0.551391  0.398053  1
  Si  Si879  1  0.112413  0.072503  0.507738  1
  Si  Si880  1  0.112413  0.572503  0.386898  1
  Si  Si881  1  0.387351  0.427594  0.367140  1
  Si  Si882  1  0.387351  0.927594  0.487979  1
  Si  Si883  1  0.113837  0.440248  0.405543  1
  Si  Si884  1  0.113837  0.940248  0.526382  1
  Si  Si885  1  0.193593  0.061164  0.536966  1
  Si  Si886  1  0.193593  0.561164  0.416127  1
  Si  Si887  1  0.886286  0.255006  0.361144  1
  Si  Si888  1  0.886286  0.755006  0.481984  1
  Si  Si889  1  0.805715  0.373089  0.369277  1
  Si  Si890  1  0.805715  0.873089  0.490116  1
  Si  Si891  1  0.886528  0.131349  0.331050  1
  Si  Si892  1  0.886528  0.631349  0.451890  1
  Si  Si893  1  0.612329  0.051387  0.518894  1
  Si  Si894  1  0.612329  0.551387  0.398055  1
  Si  Si895  1  0.887436  0.448701  0.355987  1
  Si  Si896  1  0.887436  0.948702  0.476826  1
  Si  Si897  1  0.612413  0.427590  0.367141  1
  Si  Si898  1  0.612413  0.927590  0.487981  1
  Si  Si899  1  0.887351  0.072498  0.507740  1
  Si  Si900  1  0.887351  0.572499  0.386900  1
  Si  Si901  1  0.885931  0.440245  0.405544  1
  Si  Si902  1  0.885931  0.940244  0.526384  1
  Si  Si903  1  0.806172  0.061161  0.536969  1
  Si  Si904  1  0.806172  0.561161  0.416129  1
  Si  Si905  1  0.193623  0.438927  0.700429  1
  Si  Si906  1  0.193623  0.938927  0.579589  1
  Si  Si907  1  0.113509  0.245084  0.634573  1
  Si  Si908  1  0.113509  0.745084  0.755412  1
  Si  Si909  1  0.194081  0.127001  0.626440  1
  Si  Si910  1  0.194081  0.627001  0.747280  1
  Si  Si911  1  0.113267  0.368740  0.664668  1
  Si  Si912  1  0.113267  0.868740  0.785507  1
  Si  Si913  1  0.112360  0.051392  0.639732  1
  Si  Si914  1  0.112360  0.551392  0.760571  1
  Si  Si915  1  0.387466  0.448705  0.718503  1
  Si  Si916  1  0.387466  0.948704  0.597664  1
  Si  Si917  1  0.112445  0.427594  0.729658  1
  Si  Si918  1  0.112445  0.927595  0.608819  1
  Si  Si919  1  0.387382  0.072502  0.628577  1
  Si  Si920  1  0.387382  0.572502  0.749416  1
  Si  Si921  1  0.113864  0.059843  0.590173  1
  Si  Si922  1  0.113864  0.559843  0.711013  1
  Si  Si923  1  0.806202  0.438924  0.700431  1
  Si  Si924  1  0.806202  0.938924  0.579592  1
  Si  Si925  1  0.885958  0.059839  0.590175  1
  Si  Si926  1  0.885958  0.559839  0.711014  1
  Si  Si927  1  0.886303  0.245080  0.634574  1
  Si  Si928  1  0.886303  0.745080  0.755414  1
  Si  Si929  1  0.805746  0.126995  0.626442  1
  Si  Si930  1  0.805746  0.626995  0.747282  1
  Si  Si931  1  0.886541  0.368737  0.664669  1
  Si  Si932  1  0.886541  0.868736  0.785509  1
  Si  Si933  1  0.612360  0.448700  0.718505  1
  Si  Si934  1  0.612360  0.948700  0.597666  1
  Si  Si935  1  0.887466  0.051387  0.639734  1
  Si  Si936  1  0.887466  0.551387  0.760573  1
  Si  Si937  1  0.612445  0.072498  0.628579  1
  Si  Si938  1  0.612445  0.572498  0.749418  1
  Si  Si939  1  0.887382  0.427590  0.729660  1
  Si  Si940  1  0.887382  0.927590  0.608821  1
  Si  Si941  1  0.306173  0.438932  0.579590  1
  Si  Si942  1  0.306173  0.938932  0.700429  1
  Si  Si943  1  0.306202  0.061169  0.657806  1
  Si  Si944  1  0.306202  0.561168  0.778646  1
  Si  Si945  1  0.386303  0.255011  0.723663  1
  Si  Si946  1  0.386303  0.755011  0.602823  1
  Si  Si947  1  0.386286  0.245086  0.755414  1
  Si  Si948  1  0.386286  0.745086  0.634574  1
  Si  Si949  1  0.305746  0.373096  0.731795  1
  Si  Si950  1  0.305746  0.873097  0.610955  1
  Si  Si951  1  0.305715  0.127004  0.747281  1
  Si  Si952  1  0.305715  0.627004  0.626442  1
  Si  Si953  1  0.386541  0.131356  0.693568  1
  Si  Si954  1  0.386541  0.631355  0.572728  1
  Si  Si955  1  0.386527  0.368744  0.785508  1
  Si  Si956  1  0.386527  0.868744  0.664669  1
  Si  Si957  1  0.385958  0.440253  0.768062  1
  Si  Si958  1  0.385958  0.940253  0.647223  1
  Si  Si959  1  0.385931  0.059848  0.711014  1
  Si  Si960  1  0.385931  0.559848  0.590175  1
  Si  Si961  1  0.613864  0.440250  0.768064  1
  Si  Si962  1  0.613864  0.940250  0.647224  1
  Si  Si963  1  0.613838  0.059844  0.711015  1
  Si  Si964  1  0.613838  0.559845  0.590176  1
  Si  Si965  1  0.693623  0.061165  0.657808  1
  Si  Si966  1  0.693623  0.561165  0.778648  1
  Si  Si967  1  0.693593  0.438929  0.579592  1
  Si  Si968  1  0.693593  0.938928  0.700432  1
  Si  Si969  1  0.613492  0.245084  0.755415  1
  Si  Si970  1  0.613492  0.745084  0.634576  1
  Si  Si971  1  0.613509  0.255008  0.723664  1
  Si  Si972  1  0.613509  0.755008  0.602824  1
  Si  Si973  1  0.694049  0.126998  0.747283  1
  Si  Si974  1  0.694049  0.626998  0.626443  1
  Si  Si975  1  0.694081  0.373091  0.731796  1
  Si  Si976  1  0.694081  0.873091  0.610957  1
  Si  Si977  1  0.613254  0.368740  0.785509  1
  Si  Si978  1  0.613254  0.868740  0.664670  1
  Si  Si979  1  0.613268  0.131352  0.693569  1
  Si  Si980  1  0.613268  0.631352  0.572730  1
  Si  Si981  1  0.113493  0.255009  0.602822  1
  Si  Si982  1  0.113493  0.755010  0.723661  1
  Si  Si983  1  0.194049  0.373095  0.610954  1
  Si  Si984  1  0.194049  0.873095  0.731794  1
  Si  Si985  1  0.113254  0.131352  0.572728  1
  Si  Si986  1  0.113254  0.631352  0.693567  1
  Si  Si987  1  0.112329  0.448706  0.597664  1
  Si  Si988  1  0.112329  0.948706  0.718503  1
  Si  Si989  1  0.387435  0.051391  0.760571  1
  Si  Si990  1  0.387435  0.551391  0.639732  1
  Si  Si991  1  0.112413  0.072503  0.749417  1
  Si  Si992  1  0.112413  0.572503  0.628577  1
  Si  Si993  1  0.387351  0.427594  0.608818  1
  Si  Si994  1  0.387351  0.927594  0.729658  1
  Si  Si995  1  0.113837  0.440248  0.647222  1
  Si  Si996  1  0.113837  0.940249  0.768061  1
  Si  Si997  1  0.193593  0.061165  0.778645  1
  Si  Si998  1  0.193593  0.561165  0.657806  1
  Si  Si999  1  0.886286  0.255006  0.602823  1
  Si  Si1000  1  0.886286  0.755006  0.723663  1
  Si  Si1001  1  0.805715  0.373089  0.610956  1
  Si  Si1002  1  0.805715  0.873089  0.731795  1
  Si  Si1003  1  0.886528  0.131349  0.572729  1
  Si  Si1004  1  0.886528  0.631349  0.693569  1
  Si  Si1005  1  0.612329  0.051387  0.760573  1
  Si  Si1006  1  0.612329  0.551387  0.639734  1
  Si  Si1007  1  0.887436  0.448701  0.597666  1
  Si  Si1008  1  0.887436  0.948701  0.718505  1
  Si  Si1009  1  0.612413  0.427590  0.608820  1
  Si  Si1010  1  0.612413  0.927590  0.729660  1
  Si  Si1011  1  0.887351  0.072498  0.749418  1
  Si  Si1012  1  0.887351  0.572498  0.628579  1
  Si  Si1013  1  0.885931  0.440244  0.647223  1
  Si  Si1014  1  0.885931  0.940244  0.768063  1
  Si  Si1015  1  0.806172  0.061161  0.778647  1
  Si  Si1016  1  0.806172  0.561161  0.657808  1
  H  H1017  1  0.330440  0.608616  0.062561  1
  H  H1018  1  0.669381  0.608611  0.062563  1
  H  H1019  1  0.169356  0.108612  0.062560  1
  H  H1020  1  0.830414  0.108607  0.062562  1
  H  H1021  1  0.169381  0.891481  0.067877  1
  H  H1022  1  0.830439  0.891477  0.067879  1
  H  H1023  1  0.330414  0.391486  0.067877  1
  H  H1024  1  0.669355  0.391481  0.067879  1
  H  H1025  1  0.330440  0.608616  0.807000  1
  H  H1026  1  0.669381  0.608611  0.807003  1
  H  H1027  1  0.169356  0.108612  0.807000  1
  H  H1028  1  0.830414  0.108607  0.807002  1
  H  H1029  1  0.169381  0.891481  0.812316  1
  H  H1030  1  0.830439  0.891477  0.812318  1
  H  H1031  1  0.330414  0.391486  0.812317  1
  H  H1032  1  0.669355  0.391481  0.812319  1
