# generated using pymatgen
data_Si12H2O25
_symmetry_space_group_name_H-M   'P 1'
_cell_length_a   21.16392848
_cell_length_b   38.13318385
_cell_length_c   85.84243330
_cell_angle_alpha   149.99978651
_cell_angle_beta   90.00000000
_cell_angle_gamma   90.00000000
_symmetry_Int_Tables_number   1
_chemical_formula_structural   Si12H2O25
_chemical_formula_sum   'Si264 H44 O550'
_cell_volume   34639.704569
_cell_formula_units_Z   22
loop_
 _symmetry_equiv_pos_site_id
 _symmetry_equiv_pos_as_xyz
  1  'x, y, z'
loop_
 _atom_site_type_symbol
 _atom_site_label
 _atom_site_symmetry_multiplicity
 _atom_site_fract_x
 _atom_site_fract_y
 _atom_site_fract_z
 _atom_site_occupancy
  O  O1  1  0.742006  0.133087  0.127014  1
  O  O2  1  0.687985  0.227305  0.127045  1
  O  O3  1  0.809786  0.452640  0.127040  1
  O  O4  1  0.870401  0.200012  0.127049  1
  O  O5  1  0.000000  0.138719  0.127048  1
  O  O6  1  0.414866  0.453314  0.127083  1
  O  O7  1  0.585095  0.453260  0.127034  1
  O  O8  1  0.257972  0.133136  0.127078  1
  O  O9  1  0.312036  0.227265  0.127072  1
  O  O10  1  0.129597  0.199983  0.127076  1
  O  O11  1  0.742000  0.866857  0.126976  1
  O  O12  1  0.687888  0.772839  0.127034  1
  O  O13  1  0.809637  0.547382  0.127053  1
  O  O14  1  0.870280  0.800113  0.127055  1
  O  O15  1  0.585069  0.546775  0.127074  1
  O  O16  1  0.257868  0.866902  0.127084  1
  O  O17  1  0.311900  0.772732  0.127074  1
  O  O18  1  0.129493  0.800019  0.127073  1
  O  O19  1  -0.000000  0.861295  0.127052  1
  O  O20  1  0.742033  0.866916  0.281087  1
  O  O21  1  0.742030  0.733677  0.281046  1
  O  O22  1  0.742006  0.133087  0.383485  1
  O  O23  1  0.703201  0.746613  0.227267  1
  O  O24  1  0.703190  0.644114  0.265957  1
  O  O25  1  0.703210  0.102446  0.344776  1
  O  O26  1  0.703229  0.897569  0.265960  1
  O  O27  1  0.703247  0.644099  0.227218  1
  O  O28  1  0.703178  0.253395  0.165763  1
  O  O29  1  0.736869  0.764590  0.262758  1
  O  O30  1  0.783768  0.577827  0.275239  1
  O  O31  1  0.736854  -0.000000  0.323115  1
  O  O32  1  0.817618  0.765875  0.241335  1
  O  O33  1  0.817602  0.679687  0.279273  1
  O  O34  1  0.817620  0.086091  0.345516  1
  O  O35  1  0.817641  0.913937  0.279288  1
  O  O36  1  0.817650  0.679742  0.241311  1
  O  O37  1  0.817588  0.234128  0.165010  1
  O  O38  1  0.736361  0.875103  0.230381  1
  O  O39  1  0.736372  0.527831  0.173363  1
  O  O40  1  0.736256  0.347206  0.184074  1
  O  O41  1  0.736283  0.652819  0.173401  1
  O  O42  1  0.736287  0.527874  0.230396  1
  O  O43  1  0.736349  0.124947  0.326497  1
  O  O44  1  0.688004  0.772725  0.208631  1
  O  O45  1  0.688019  0.545384  0.208622  1
  O  O46  1  0.687985  0.227305  0.383515  1
  O  O47  1  0.850540  0.667436  0.186249  1
  O  O48  1  0.850542  0.563347  0.244842  1
  O  O49  1  0.850575  0.104061  0.324888  1
  O  O50  1  0.850589  0.895997  0.244845  1
  O  O51  1  0.850613  0.563393  0.186238  1
  O  O52  1  0.850507  0.332589  0.185680  1
  O  O53  1  0.783784  0.577843  0.166976  1
  O  O54  1  0.783788  0.000000  0.275236  1
  O  O55  1  0.809648  0.452602  0.218827  1
  O  O56  1  0.809786  0.452640  0.383511  1
  O  O57  1  0.809685  0.094706  0.291685  1
  O  O58  1  0.870429  0.800023  0.229637  1
  O  O59  1  0.870440  0.600007  0.229635  1
  O  O60  1  0.870401  0.200012  0.383520  1
  O  O61  1  0.938942  0.909221  0.271868  1
  O  O62  1  0.938964  0.655531  0.230110  1
  O  O63  1  0.938883  0.253701  0.168838  1
  O  O64  1  0.938911  0.746322  0.230112  1
  O  O65  1  0.938904  0.655510  0.271890  1
  O  O66  1  0.938926  0.090821  0.341730  1
  O  O67  1  0.000000  0.000000  0.322418  1
  O  O68  1  -0.000000  0.761809  0.261342  1
  O  O69  1  0.000000  0.138719  0.383518  1
  O  O70  1  -0.000000  0.861325  0.276805  1
  O  O71  1  0.736846  0.764548  0.323092  1
  O  O72  1  0.736837  0.235402  0.187413  1
  O  O73  1  0.783746  0.422220  0.235347  1
  O  O74  1  -0.000000  0.238239  0.188156  1
  O  O75  1  -0.000000  0.722576  0.276802  1
  O  O76  1  -0.000000  0.761740  0.322416  1
  O  O77  1  0.618953  0.875071  0.235747  1
  O  O78  1  0.618934  0.548823  0.184145  1
  O  O79  1  0.618845  0.326126  0.178652  1
  O  O80  1  0.618871  0.673889  0.184196  1
  O  O81  1  0.618867  0.548837  0.235756  1
  O  O82  1  0.618940  0.124974  0.331883  1
  O  O83  1  0.381144  0.548952  0.184223  1
  O  O84  1  0.381089  0.326169  0.178689  1
  O  O85  1  0.381187  0.875117  0.235837  1
  O  O86  1  0.381099  0.548932  0.235818  1
  O  O87  1  0.381183  0.124944  0.331943  1
  O  O88  1  0.381113  0.673902  0.184230  1
  O  O89  1  0.499975  0.534275  0.239891  1
  O  O90  1  0.500068  0.094350  0.312459  1
  O  O91  1  0.499991  0.628676  0.168874  1
  O  O92  1  0.500025  0.534295  0.168848  1
  O  O93  1  0.499967  0.371366  0.198124  1
  O  O94  1  0.500074  0.905699  0.239889  1
  O  O95  1  0.414864  0.453298  0.219372  1
  O  O96  1  0.414866  0.453314  0.383553  1
  O  O97  1  0.414844  0.093449  0.291252  1
  O  O98  1  0.585079  0.453246  0.219336  1
  O  O99  1  0.585095  0.453260  0.383504  1
  O  O100  1  0.585082  0.093463  0.291193  1
  O  O101  1  0.415578  0.000000  0.275850  1
  O  O102  1  0.415478  0.419953  0.234786  1
  O  O103  1  0.415513  0.580110  0.168162  1
  O  O104  1  0.584510  0.580078  0.168130  1
  O  O105  1  0.584577  0.000000  0.275781  1
  O  O106  1  0.584473  0.419930  0.234763  1
  O  O107  1  0.584464  0.580040  0.275807  1
  O  O108  1  0.415482  0.580088  0.275849  1
  O  O109  1  0.257984  0.733810  0.281142  1
  O  O110  1  0.257972  0.133136  0.383549  1
  O  O111  1  0.257990  0.866932  0.281143  1
  O  O112  1  0.296781  0.644221  0.266042  1
  O  O113  1  0.296827  0.102416  0.344821  1
  O  O114  1  0.296790  0.746627  0.227312  1
  O  O115  1  0.296826  0.644248  0.227320  1
  O  O116  1  0.296766  0.253438  0.165814  1
  O  O117  1  0.296833  0.897647  0.266046  1
  O  O118  1  0.263097  0.764640  0.323187  1
  O  O119  1  0.263166  0.000000  0.323189  1
  O  O120  1  0.263171  0.764676  0.262830  1
  O  O121  1  0.182370  0.679793  0.279347  1
  O  O122  1  0.182404  0.086078  0.345564  1
  O  O123  1  0.182387  0.765893  0.241387  1
  O  O124  1  0.182417  0.679840  0.241382  1
  O  O125  1  0.182357  0.234173  0.165062  1
  O  O126  1  0.182412  0.913980  0.279360  1
  O  O127  1  0.263723  0.527983  0.173448  1
  O  O128  1  0.263670  0.347179  0.184075  1
  O  O129  1  0.263760  0.875163  0.230458  1
  O  O130  1  0.263685  0.527943  0.230447  1
  O  O131  1  0.263756  0.124897  0.326531  1
  O  O132  1  0.263693  0.652878  0.173446  1
  O  O133  1  0.312007  0.545514  0.208700  1
  O  O134  1  0.312036  0.227265  0.383543  1
  O  O135  1  0.312045  0.772796  0.208707  1
  O  O136  1  0.149439  0.563411  0.244887  1
  O  O137  1  0.149495  0.104043  0.324934  1
  O  O138  1  0.149453  0.667471  0.186300  1
  O  O139  1  0.149477  0.563490  0.186298  1
  O  O140  1  0.149426  0.332587  0.185696  1
  O  O141  1  0.149502  0.896011  0.244906  1
  O  O142  1  0.216258  0.000000  0.275277  1
  O  O143  1  0.216216  0.422180  0.235343  1
  O  O144  1  0.216259  0.577868  0.167004  1
  O  O145  1  0.190305  0.452620  0.218847  1
  O  O146  1  0.190315  0.452682  0.127099  1
  O  O147  1  0.190285  0.094790  0.291779  1
  O  O148  1  0.129600  0.600097  0.229689  1
  O  O149  1  0.129597  0.199983  0.383546  1
  O  O150  1  0.129620  0.800069  0.229701  1
  O  O151  1  0.061117  0.655637  0.230158  1
  O  O152  1  0.061043  0.253682  0.168845  1
  O  O153  1  0.061104  0.909272  0.271927  1
  O  O154  1  0.061063  0.655525  0.271901  1
  O  O155  1  0.061092  0.090773  0.341747  1
  O  O156  1  0.061070  0.746376  0.230156  1
  O  O157  1  0.263121  0.235392  0.187446  1
  O  O158  1  0.216180  0.577826  0.275266  1
  O  O159  1  0.742000  0.266305  0.229478  1
  O  O160  1  0.742000  0.866857  0.383447  1
  O  O161  1  0.741997  0.133091  0.229390  1
  O  O162  1  0.703203  0.355883  0.244577  1
  O  O163  1  0.703072  0.897699  0.165739  1
  O  O164  1  0.703124  0.253356  0.283219  1
  O  O165  1  0.703157  0.355846  0.283295  1
  O  O166  1  0.703184  0.746584  0.344747  1
  O  O167  1  0.703062  0.102273  0.244433  1
  O  O168  1  0.736806  0.000000  0.187316  1
  O  O169  1  0.736824  0.235395  0.247750  1
  O  O170  1  0.817605  0.320276  0.231256  1
  O  O171  1  0.817494  0.913989  0.164996  1
  O  O172  1  0.817546  0.234163  0.269195  1
  O  O173  1  0.817564  0.320283  0.269241  1
  O  O174  1  0.817590  0.765827  0.345501  1
  O  O175  1  0.817486  0.086003  0.231168  1
  O  O176  1  0.736248  0.472093  0.337180  1
  O  O177  1  0.736271  0.652870  0.326510  1
  O  O178  1  0.736082  0.124827  0.280054  1
  O  O179  1  0.736306  0.472168  0.280192  1
  O  O180  1  0.736103  0.875196  0.184025  1
  O  O181  1  0.736187  0.347046  0.337084  1
  O  O182  1  0.687991  0.454589  0.301934  1
  O  O183  1  0.687888  0.772839  0.383504  1
  O  O184  1  0.687811  0.227125  0.301786  1
  O  O185  1  0.850551  0.436657  0.265722  1
  O  O186  1  0.850365  0.896103  0.185672  1
  O  O187  1  0.850445  0.332535  0.324288  1
  O  O188  1  0.850497  0.436610  0.324328  1
  O  O189  1  0.850514  0.667472  0.324908  1
  O  O190  1  0.850347  0.103938  0.265624  1
  O  O191  1  0.783556  0.000000  0.235301  1
  O  O192  1  -0.000000  0.277460  0.233797  1
  O  O193  1  0.783700  0.422159  0.343598  1
  O  O194  1  0.809659  0.547447  0.291763  1
  O  O195  1  0.809637  0.547382  0.383524  1
  O  O196  1  0.809704  0.905353  0.218842  1
  O  O197  1  0.870385  0.399997  0.280927  1
  O  O198  1  0.870280  0.800113  0.383526  1
  O  O199  1  0.870237  0.199906  0.280852  1
  O  O200  1  0.938861  0.344485  0.280471  1
  O  O201  1  0.938892  0.746349  0.341749  1
  O  O202  1  0.938770  0.090734  0.238630  1
  O  O203  1  0.938911  0.344500  0.238690  1
  O  O204  1  0.938784  0.909303  0.168832  1
  O  O205  1  0.938843  0.253683  0.280449  1
  O  O206  1  -0.000000  0.238294  0.249280  1
  O  O207  1  -0.000000  0.138751  0.233792  1
  O  O208  1  0.618828  0.451145  0.326405  1
  O  O209  1  0.618852  0.673867  0.331896  1
  O  O210  1  0.618697  0.124825  0.274662  1
  O  O211  1  0.618877  0.451162  0.274819  1
  O  O212  1  0.618716  0.875138  0.178614  1
  O  O213  1  0.618789  0.326107  0.326328  1
  O  O214  1  0.380960  0.124962  0.274815  1
  O  O215  1  0.381047  0.451143  0.326431  1
  O  O216  1  0.381077  0.673878  0.331949  1
  O  O217  1  0.381044  0.326185  0.326420  1
  O  O218  1  0.381093  0.451113  0.274820  1
  O  O219  1  0.380965  0.875058  0.178680  1
  O  O220  1  0.499932  0.371391  0.341743  1
  O  O221  1  0.499982  0.465733  0.270713  1
  O  O222  1  0.499855  0.905661  0.198087  1
  O  O223  1  0.499846  0.094335  0.270668  1
  O  O224  1  0.499931  0.465772  0.341766  1
  O  O225  1  0.499972  0.628651  0.312484  1
  O  O226  1  0.414868  0.546749  0.291266  1
  O  O227  1  0.414853  0.546773  0.127095  1
  O  O228  1  0.414855  0.906587  0.219369  1
  O  O229  1  0.585085  0.546741  0.291240  1
  O  O230  1  0.585069  0.546775  0.383544  1
  O  O231  1  0.585088  0.906549  0.219291  1
  O  O232  1  0.415440  0.419980  0.342486  1
  O  O233  1  0.415357  -0.000000  0.234768  1
  O  O234  1  0.584323  0.000000  0.234706  1
  O  O235  1  0.584415  0.419979  0.342458  1
  O  O236  1  0.257831  0.133156  0.229510  1
  O  O237  1  0.257923  0.266256  0.229506  1
  O  O238  1  0.257868  0.866902  0.383554  1
  O  O239  1  0.296710  0.253425  0.283326  1
  O  O240  1  0.296773  0.355815  0.244593  1
  O  O241  1  0.296659  0.897625  0.165818  1
  O  O242  1  0.296648  0.102426  0.244602  1
  O  O243  1  0.296731  0.355839  0.283334  1
  O  O244  1  0.296747  0.746617  0.344827  1
  O  O245  1  0.263041  0.235418  0.247827  1
  O  O246  1  0.262991  -0.000000  0.187453  1
  O  O247  1  0.182288  0.234231  0.269290  1
  O  O248  1  0.182360  0.320228  0.231272  1
  O  O249  1  0.182250  0.913944  0.165061  1
  O  O250  1  0.182234  0.086099  0.231290  1
  O  O251  1  0.182317  0.320278  0.269275  1
  O  O252  1  0.182330  0.765823  0.345559  1
  O  O253  1  0.263550  0.124929  0.280190  1
  O  O254  1  0.263635  0.472113  0.337206  1
  O  O255  1  0.263660  0.652804  0.326523  1
  O  O256  1  0.263633  0.347237  0.337205  1
  O  O257  1  0.263673  0.472072  0.280172  1
  O  O258  1  0.263551  0.875114  0.184088  1
  O  O259  1  0.311897  0.227310  0.301950  1
  O  O260  1  0.311946  0.454549  0.301940  1
  O  O261  1  0.311900  0.772732  0.383544  1
  O  O262  1  0.149371  0.332642  0.324374  1
  O  O263  1  0.149425  0.436577  0.265707  1
  O  O264  1  0.149310  0.896001  0.185703  1
  O  O265  1  0.149305  0.104039  0.265737  1
  O  O266  1  0.149388  0.436658  0.324363  1
  O  O267  1  0.149401  0.667410  0.324921  1
  O  O268  1  0.216141  0.422222  0.343641  1
  O  O269  1  0.216094  0.000000  0.235356  1
  O  O270  1  0.190300  0.547374  0.291759  1
  O  O271  1  0.190295  0.547442  0.127095  1
  O  O272  1  0.190281  0.905261  0.218867  1
  O  O273  1  0.129472  0.200026  0.280960  1
  O  O274  1  0.129547  0.399976  0.280937  1
  O  O275  1  0.129493  0.800019  0.383543  1
  O  O276  1  0.060937  0.090828  0.238718  1
  O  O277  1  0.061016  0.344535  0.280497  1
  O  O278  1  0.061043  0.746287  0.341741  1
  O  O279  1  0.061002  0.253770  0.280508  1
  O  O280  1  0.061062  0.344438  0.238673  1
  O  O281  1  0.060951  0.909216  0.168849  1
  O  O282  1  -0.000000  0.861295  0.383523  1
  O  O283  1  0.000000  0.000000  0.188155  1
  O  O284  1  0.742033  0.866916  0.537558  1
  O  O285  1  0.742030  0.733677  0.537517  1
  O  O286  1  0.742006  0.133087  0.639956  1
  O  O287  1  0.703201  0.746613  0.483738  1
  O  O288  1  0.703190  0.644114  0.522427  1
  O  O289  1  0.703210  0.102446  0.601247  1
  O  O290  1  0.703229  0.897569  0.522431  1
  O  O291  1  0.703247  0.644099  0.483689  1
  O  O292  1  0.703178  0.253395  0.422234  1
  O  O293  1  0.736869  0.764590  0.519228  1
  O  O294  1  0.783768  0.577827  0.531710  1
  O  O295  1  0.736854  0.000000  0.579585  1
  O  O296  1  0.817618  0.765875  0.497806  1
  O  O297  1  0.817602  0.679687  0.535744  1
  O  O298  1  0.817620  0.086091  0.601987  1
  O  O299  1  0.817641  0.913937  0.535759  1
  O  O300  1  0.817650  0.679742  0.497782  1
  O  O301  1  0.817588  0.234128  0.421481  1
  O  O302  1  0.736361  0.875103  0.486851  1
  O  O303  1  0.736372  0.527831  0.429834  1
  O  O304  1  0.736256  0.347206  0.440545  1
  O  O305  1  0.736283  0.652819  0.429872  1
  O  O306  1  0.736287  0.527874  0.486867  1
  O  O307  1  0.736349  0.124947  0.582968  1
  O  O308  1  0.688004  0.772725  0.465102  1
  O  O309  1  0.688019  0.545384  0.465093  1
  O  O310  1  0.687985  0.227305  0.639986  1
  O  O311  1  0.850540  0.667436  0.442720  1
  O  O312  1  0.850542  0.563347  0.501313  1
  O  O313  1  0.850575  0.104061  0.581358  1
  O  O314  1  0.850589  0.895997  0.501315  1
  O  O315  1  0.850613  0.563393  0.442709  1
  O  O316  1  0.850507  0.332589  0.442151  1
  O  O317  1  0.783784  0.577843  0.423447  1
  O  O318  1  0.783788  0.000000  0.531706  1
  O  O319  1  0.809648  0.452602  0.475298  1
  O  O320  1  0.809786  0.452640  0.639981  1
  O  O321  1  0.809685  0.094706  0.548156  1
  O  O322  1  0.870429  0.800023  0.486107  1
  O  O323  1  0.870440  0.600007  0.486106  1
  O  O324  1  0.870401  0.200012  0.639990  1
  O  O325  1  0.938942  0.909221  0.528338  1
  O  O326  1  0.938964  0.655531  0.486581  1
  O  O327  1  0.938883  0.253701  0.425309  1
  O  O328  1  0.938911  0.746322  0.486583  1
  O  O329  1  0.938904  0.655510  0.528360  1
  O  O330  1  0.938926  0.090821  0.598201  1
  O  O331  1  0.000000  0.000000  0.578888  1
  O  O332  1  -0.000000  0.761809  0.517813  1
  O  O333  1  0.000000  0.138719  0.639989  1
  O  O334  1  0.000000  0.861325  0.533275  1
  O  O335  1  0.736846  0.764548  0.579563  1
  O  O336  1  0.736837  0.235402  0.443884  1
  O  O337  1  0.783746  0.422220  0.491818  1
  O  O338  1  0.000000  0.238239  0.444627  1
  O  O339  1  -0.000000  0.722576  0.533272  1
  O  O340  1  -0.000000  0.761740  0.578887  1
  O  O341  1  0.618953  0.875071  0.492218  1
  O  O342  1  0.618934  0.548823  0.440616  1
  O  O343  1  0.618845  0.326126  0.435122  1
  O  O344  1  0.618871  0.673889  0.440666  1
  O  O345  1  0.618867  0.548837  0.492226  1
  O  O346  1  0.618940  0.124974  0.588353  1
  O  O347  1  0.381144  0.548952  0.440694  1
  O  O348  1  0.381089  0.326169  0.435160  1
  O  O349  1  0.381187  0.875117  0.492307  1
  O  O350  1  0.381099  0.548932  0.492289  1
  O  O351  1  0.381183  0.124944  0.588413  1
  O  O352  1  0.381113  0.673902  0.440701  1
  O  O353  1  0.499975  0.534275  0.496362  1
  O  O354  1  0.500068  0.094350  0.568930  1
  O  O355  1  0.499991  0.628676  0.425345  1
  O  O356  1  0.500025  0.534295  0.425318  1
  O  O357  1  0.499967  0.371366  0.454595  1
  O  O358  1  0.500074  0.905699  0.496359  1
  O  O359  1  0.414864  0.453298  0.475843  1
  O  O360  1  0.414866  0.453314  0.640024  1
  O  O361  1  0.414844  0.093449  0.547722  1
  O  O362  1  0.585079  0.453246  0.475806  1
  O  O363  1  0.585095  0.453260  0.639975  1
  O  O364  1  0.585082  0.093463  0.547664  1
  O  O365  1  0.415578  0.000000  0.532321  1
  O  O366  1  0.415478  0.419953  0.491256  1
  O  O367  1  0.415513  0.580110  0.424633  1
  O  O368  1  0.584510  0.580078  0.424601  1
  O  O369  1  0.584577  0.000000  0.532251  1
  O  O370  1  0.584473  0.419930  0.491234  1
  O  O371  1  0.584464  0.580040  0.532278  1
  O  O372  1  0.415482  0.580088  0.532320  1
  O  O373  1  0.257984  0.733810  0.537612  1
  O  O374  1  0.257972  0.133136  0.640019  1
  O  O375  1  0.257990  0.866932  0.537613  1
  O  O376  1  0.296781  0.644221  0.522513  1
  O  O377  1  0.296827  0.102416  0.601292  1
  O  O378  1  0.296790  0.746627  0.483783  1
  O  O379  1  0.296826  0.644248  0.483791  1
  O  O380  1  0.296766  0.253438  0.422284  1
  O  O381  1  0.296833  0.897647  0.522516  1
  O  O382  1  0.263097  0.764640  0.579658  1
  O  O383  1  0.263166  0.000000  0.579660  1
  O  O384  1  0.263171  0.764676  0.519301  1
  O  O385  1  0.182370  0.679793  0.535818  1
  O  O386  1  0.182404  0.086078  0.602035  1
  O  O387  1  0.182387  0.765893  0.497858  1
  O  O388  1  0.182417  0.679840  0.497853  1
  O  O389  1  0.182357  0.234173  0.421532  1
  O  O390  1  0.182412  0.913980  0.535831  1
  O  O391  1  0.263723  0.527983  0.429919  1
  O  O392  1  0.263670  0.347179  0.440546  1
  O  O393  1  0.263760  0.875163  0.486929  1
  O  O394  1  0.263685  0.527943  0.486917  1
  O  O395  1  0.263756  0.124897  0.583001  1
  O  O396  1  0.263693  0.652878  0.429917  1
  O  O397  1  0.312007  0.545514  0.465171  1
  O  O398  1  0.312036  0.227265  0.640013  1
  O  O399  1  0.312045  0.772796  0.465178  1
  O  O400  1  0.149439  0.563411  0.501358  1
  O  O401  1  0.149495  0.104043  0.581405  1
  O  O402  1  0.149453  0.667471  0.442770  1
  O  O403  1  0.149477  0.563490  0.442768  1
  O  O404  1  0.149426  0.332587  0.442166  1
  O  O405  1  0.149502  0.896011  0.501377  1
  O  O406  1  0.216258  -0.000000  0.531748  1
  O  O407  1  0.216216  0.422180  0.491814  1
  O  O408  1  0.216259  0.577868  0.423475  1
  O  O409  1  0.190305  0.452620  0.475318  1
  O  O410  1  0.190315  0.452682  0.383570  1
  O  O411  1  0.190285  0.094790  0.548249  1
  O  O412  1  0.129600  0.600097  0.486160  1
  O  O413  1  0.129597  0.199983  0.640017  1
  O  O414  1  0.129620  0.800069  0.486172  1
  O  O415  1  0.061117  0.655637  0.486628  1
  O  O416  1  0.061043  0.253682  0.425315  1
  O  O417  1  0.061104  0.909272  0.528397  1
  O  O418  1  0.061063  0.655525  0.528372  1
  O  O419  1  0.061092  0.090773  0.598218  1
  O  O420  1  0.061070  0.746376  0.486627  1
  O  O421  1  0.263121  0.235392  0.443916  1
  O  O422  1  0.216180  0.577826  0.531736  1
  O  O423  1  0.742000  0.266305  0.485949  1
  O  O424  1  0.742000  0.866857  0.639917  1
  O  O425  1  0.741997  0.133091  0.485861  1
  O  O426  1  0.703203  0.355883  0.501048  1
  O  O427  1  0.703072  0.897699  0.422210  1
  O  O428  1  0.703124  0.253356  0.539690  1
  O  O429  1  0.703157  0.355846  0.539766  1
  O  O430  1  0.703184  0.746584  0.601217  1
  O  O431  1  0.703062  0.102273  0.500904  1
  O  O432  1  0.736806  0.000000  0.443787  1
  O  O433  1  0.736824  0.235395  0.504220  1
  O  O434  1  0.817605  0.320276  0.487727  1
  O  O435  1  0.817494  0.913989  0.421467  1
  O  O436  1  0.817546  0.234163  0.525666  1
  O  O437  1  0.817564  0.320283  0.525712  1
  O  O438  1  0.817590  0.765827  0.601971  1
  O  O439  1  0.817486  0.086003  0.487639  1
  O  O440  1  0.736248  0.472093  0.593650  1
  O  O441  1  0.736271  0.652870  0.582981  1
  O  O442  1  0.736082  0.124827  0.536524  1
  O  O443  1  0.736306  0.472168  0.536662  1
  O  O444  1  0.736103  0.875196  0.440496  1
  O  O445  1  0.736187  0.347046  0.593555  1
  O  O446  1  0.687991  0.454589  0.558405  1
  O  O447  1  0.687888  0.772839  0.639975  1
  O  O448  1  0.687811  0.227125  0.558256  1
  O  O449  1  0.850551  0.436657  0.522193  1
  O  O450  1  0.850365  0.896103  0.442142  1
  O  O451  1  0.850445  0.332535  0.580759  1
  O  O452  1  0.850497  0.436610  0.580799  1
  O  O453  1  0.850514  0.667472  0.581378  1
  O  O454  1  0.850347  0.103938  0.522095  1
  O  O455  1  0.783556  -0.000000  0.491772  1
  O  O456  1  -0.000000  0.277460  0.490268  1
  O  O457  1  0.783700  0.422159  0.600068  1
  O  O458  1  0.809659  0.547447  0.548233  1
  O  O459  1  0.809637  0.547382  0.639994  1
  O  O460  1  0.809704  0.905353  0.475312  1
  O  O461  1  0.870385  0.399997  0.537398  1
  O  O462  1  0.870280  0.800113  0.639997  1
  O  O463  1  0.870237  0.199906  0.537322  1
  O  O464  1  0.938861  0.344485  0.536941  1
  O  O465  1  0.938892  0.746349  0.598219  1
  O  O466  1  0.938770  0.090734  0.495100  1
  O  O467  1  0.938911  0.344500  0.495160  1
  O  O468  1  0.938784  0.909303  0.425303  1
  O  O469  1  0.938843  0.253683  0.536920  1
  O  O470  1  0.000000  0.238294  0.505751  1
  O  O471  1  0.000000  0.138751  0.490263  1
  O  O472  1  0.618828  0.451145  0.582876  1
  O  O473  1  0.618852  0.673867  0.588367  1
  O  O474  1  0.618697  0.124825  0.531133  1
  O  O475  1  0.618877  0.451162  0.531290  1
  O  O476  1  0.618716  0.875138  0.435084  1
  O  O477  1  0.618789  0.326107  0.582798  1
  O  O478  1  0.380960  0.124962  0.531285  1
  O  O479  1  0.381047  0.451143  0.582902  1
  O  O480  1  0.381077  0.673878  0.588419  1
  O  O481  1  0.381044  0.326185  0.582891  1
  O  O482  1  0.381093  0.451113  0.531291  1
  O  O483  1  0.380965  0.875058  0.435151  1
  O  O484  1  0.499932  0.371391  0.598214  1
  O  O485  1  0.499982  0.465733  0.527183  1
  O  O486  1  0.499855  0.905661  0.454558  1
  O  O487  1  0.499846  0.094335  0.527138  1
  O  O488  1  0.499931  0.465772  0.598237  1
  O  O489  1  0.499972  0.628651  0.568954  1
  O  O490  1  0.414868  0.546749  0.547737  1
  O  O491  1  0.414853  0.546773  0.383566  1
  O  O492  1  0.414855  0.906587  0.475839  1
  O  O493  1  0.585085  0.546741  0.547711  1
  O  O494  1  0.585069  0.546775  0.640015  1
  O  O495  1  0.585088  0.906549  0.475762  1
  O  O496  1  0.415440  0.419980  0.598957  1
  O  O497  1  0.415357  -0.000000  0.491238  1
  O  O498  1  0.584323  0.000000  0.491176  1
  O  O499  1  0.584415  0.419979  0.598929  1
  O  O500  1  0.257831  0.133156  0.485981  1
  O  O501  1  0.257923  0.266256  0.485976  1
  O  O502  1  0.257868  0.866902  0.640025  1
  O  O503  1  0.296710  0.253425  0.539796  1
  O  O504  1  0.296773  0.355815  0.501064  1
  O  O505  1  0.296659  0.897625  0.422288  1
  O  O506  1  0.296648  0.102426  0.501073  1
  O  O507  1  0.296731  0.355839  0.539805  1
  O  O508  1  0.296747  0.746617  0.601298  1
  O  O509  1  0.263041  0.235418  0.504297  1
  O  O510  1  0.262991  -0.000000  0.443923  1
  O  O511  1  0.182288  0.234231  0.525760  1
  O  O512  1  0.182360  0.320228  0.487743  1
  O  O513  1  0.182250  0.913944  0.421532  1
  O  O514  1  0.182234  0.086099  0.487761  1
  O  O515  1  0.182317  0.320278  0.525746  1
  O  O516  1  0.182330  0.765823  0.602030  1
  O  O517  1  0.263550  0.124929  0.536661  1
  O  O518  1  0.263635  0.472113  0.593676  1
  O  O519  1  0.263660  0.652804  0.582994  1
  O  O520  1  0.263633  0.347237  0.593675  1
  O  O521  1  0.263673  0.472072  0.536643  1
  O  O522  1  0.263551  0.875114  0.440559  1
  O  O523  1  0.311897  0.227310  0.558420  1
  O  O524  1  0.311946  0.454549  0.558411  1
  O  O525  1  0.311900  0.772732  0.640015  1
  O  O526  1  0.149371  0.332642  0.580845  1
  O  O527  1  0.149425  0.436577  0.522178  1
  O  O528  1  0.149310  0.896001  0.442174  1
  O  O529  1  0.149305  0.104039  0.522207  1
  O  O530  1  0.149388  0.436658  0.580833  1
  O  O531  1  0.149401  0.667410  0.581392  1
  O  O532  1  0.216141  0.422222  0.600112  1
  O  O533  1  0.216094  0.000000  0.491827  1
  O  O534  1  0.190300  0.547374  0.548230  1
  O  O535  1  0.190295  0.547442  0.383566  1
  O  O536  1  0.190281  0.905261  0.475338  1
  O  O537  1  0.129472  0.200026  0.537430  1
  O  O538  1  0.129547  0.399976  0.537407  1
  O  O539  1  0.129493  0.800019  0.640014  1
  O  O540  1  0.060937  0.090828  0.495188  1
  O  O541  1  0.061016  0.344535  0.536968  1
  O  O542  1  0.061043  0.746287  0.598212  1
  O  O543  1  0.061002  0.253770  0.536979  1
  O  O544  1  0.061062  0.344438  0.495143  1
  O  O545  1  0.060951  0.909216  0.425320  1
  O  O546  1  -0.000000  0.861295  0.639993  1
  O  O547  1  0.000000  -0.000000  0.444625  1
  O  O548  1  0.190315  0.452682  0.640040  1
  O  O549  1  0.414853  0.546773  0.640037  1
  O  O550  1  0.190295  0.547442  0.640036  1
  Si  Si551  1  0.748154  0.787494  0.254526  1
  Si  Si552  1  0.748150  0.709487  0.289004  1
  Si  Si553  1  0.748153  0.077901  0.348960  1
  Si  Si554  1  0.748173  0.922118  0.289031  1
  Si  Si555  1  0.748174  0.709526  0.254486  1
  Si  Si556  1  0.748125  0.212505  0.161563  1
  Si  Si557  1  0.684782  0.852029  0.233714  1
  Si  Si558  1  0.684792  0.563916  0.197786  1
  Si  Si559  1  0.684705  0.288034  0.162968  1
  Si  Si560  1  0.684728  0.711987  0.197823  1
  Si  Si561  1  0.684719  0.563926  0.233718  1
  Si  Si562  1  0.684766  0.148007  0.347578  1
  Si  Si563  1  0.796382  0.610502  0.162788  1
  Si  Si564  1  0.796386  0.528809  0.241728  1
  Si  Si565  1  0.796431  0.081660  0.304535  1
  Si  Si566  1  0.796441  0.918397  0.241728  1
  Si  Si567  1  0.796467  0.528823  0.162768  1
  Si  Si568  1  0.796356  0.389522  0.206019  1
  Si  Si569  1  0.872150  0.880300  0.256082  1
  Si  Si570  1  0.872166  0.622904  0.220788  1
  Si  Si571  1  0.872094  0.257386  0.162359  1
  Si  Si572  1  0.872127  0.742634  0.220794  1
  Si  Si573  1  0.872123  0.622860  0.256085  1
  Si  Si574  1  0.872131  0.119739  0.348196  1
  Si  Si575  1  -0.000000  0.700923  0.286314  1
  Si  Si576  1  0.000000  0.079976  0.347832  1
  Si  Si577  1  -0.000000  0.780943  0.250651  1
  Si  Si578  1  -0.000000  0.219098  0.162741  1
  Si  Si579  1  -0.000000  0.920070  0.286318  1
  Si  Si580  1  0.427237  0.529565  0.242137  1
  Si  Si581  1  0.427303  0.080949  0.304397  1
  Si  Si582  1  0.427247  0.610525  0.163008  1
  Si  Si583  1  0.427268  0.529580  0.162997  1
  Si  Si584  1  0.427227  0.389538  0.206230  1
  Si  Si585  1  0.427310  0.919106  0.242139  1
  Si  Si586  1  0.572737  0.610519  0.162989  1
  Si  Si587  1  0.572728  0.529508  0.242094  1
  Si  Si588  1  0.572798  0.080942  0.304339  1
  Si  Si589  1  0.572805  0.919096  0.242080  1
  Si  Si590  1  0.572761  0.529531  0.162956  1
  Si  Si591  1  0.572717  0.389502  0.206204  1
  Si  Si592  1  0.127889  0.742666  0.220848  1
  Si  Si593  1  0.127902  0.119702  0.348231  1
  Si  Si594  1  0.251827  0.709613  0.289098  1
  Si  Si595  1  0.251862  0.077908  0.349018  1
  Si  Si596  1  0.251851  0.787520  0.254575  1
  Si  Si597  1  0.251875  0.709645  0.254577  1
  Si  Si598  1  0.251820  0.212550  0.161614  1
  Si  Si599  1  0.251869  0.922160  0.289103  1
  Si  Si600  1  0.315287  0.564061  0.197872  1
  Si  Si601  1  0.315247  0.288044  0.163001  1
  Si  Si602  1  0.315321  0.852107  0.233804  1
  Si  Si603  1  0.315250  0.564038  0.233791  1
  Si  Si604  1  0.315319  0.147956  0.347616  1
  Si  Si605  1  0.315266  0.712019  0.197873  1
  Si  Si606  1  0.203576  0.528842  0.241762  1
  Si  Si607  1  0.203640  0.081675  0.304595  1
  Si  Si608  1  0.203603  0.610540  0.162824  1
  Si  Si609  1  0.203628  0.528899  0.162826  1
  Si  Si610  1  0.203578  0.389517  0.206027  1
  Si  Si611  1  0.203641  0.918381  0.241777  1
  Si  Si612  1  0.127904  0.623002  0.220845  1
  Si  Si613  1  0.127860  0.257393  0.162390  1
  Si  Si614  1  0.127915  0.880348  0.256153  1
  Si  Si615  1  0.127876  0.622933  0.256134  1
  Si  Si616  1  -0.000000  0.700991  0.250652  1
  Si  Si617  1  -0.000000  0.079972  0.224258  1
  Si  Si618  1  -0.000000  0.299103  0.259967  1
  Si  Si619  1  -0.000000  0.299059  0.224260  1
  Si  Si620  1  0.872003  0.257356  0.289734  1
  Si  Si621  1  -0.000000  0.920070  0.162742  1
  Si  Si622  1  0.871960  0.880409  0.162363  1
  Si  Si623  1  0.871938  0.119614  0.254382  1
  Si  Si624  1  0.872110  0.377125  0.254471  1
  Si  Si625  1  0.748143  0.290469  0.221508  1
  Si  Si626  1  0.748074  0.922133  0.161514  1
  Si  Si627  1  0.748120  0.212506  0.255981  1
  Si  Si628  1  0.748118  0.290479  0.256041  1
  Si  Si629  1  0.748147  0.787442  0.348936  1
  Si  Si630  1  0.748073  0.077835  0.221409  1
  Si  Si631  1  0.684689  0.436038  0.312759  1
  Si  Si632  1  0.684694  0.711997  0.347568  1
  Si  Si633  1  0.684545  0.147803  0.276671  1
  Si  Si634  1  0.684741  0.436064  0.276843  1
  Si  Si635  1  0.684573  0.852170  0.162948  1
  Si  Si636  1  0.684615  0.287944  0.312649  1
  Si  Si637  1  0.796397  0.471233  0.268856  1
  Si  Si638  1  0.796216  0.918392  0.205988  1
  Si  Si639  1  0.796308  0.389472  0.347772  1
  Si  Si640  1  0.796349  0.471159  0.347794  1
  Si  Si641  1  0.796378  0.610526  0.304568  1
  Si  Si642  1  0.796201  0.081651  0.268793  1
  Si  Si643  1  0.872074  0.377121  0.289784  1
  Si  Si644  1  0.872061  0.742661  0.348205  1
  Si  Si645  1  0.000000  0.219146  0.259964  1
  Si  Si646  1  -0.000000  0.780901  0.347837  1
  Si  Si647  1  0.572685  0.470515  0.347627  1
  Si  Si648  1  0.572712  0.610481  0.304370  1
  Si  Si649  1  0.572605  0.080913  0.268412  1
  Si  Si650  1  0.427187  0.389555  0.347634  1
  Si  Si651  1  0.427230  0.470476  0.268497  1
  Si  Si652  1  0.427131  0.919087  0.206215  1
  Si  Si653  1  0.427119  0.080931  0.268474  1
  Si  Si654  1  0.427196  0.470502  0.347647  1
  Si  Si655  1  0.427222  0.610507  0.304406  1
  Si  Si656  1  0.572720  0.470476  0.268480  1
  Si  Si657  1  0.572617  0.919068  0.206153  1
  Si  Si658  1  0.572676  0.389528  0.347595  1
  Si  Si659  1  0.127748  0.880304  0.162389  1
  Si  Si660  1  0.127849  0.377071  0.254469  1
  Si  Si661  1  0.251736  0.212574  0.256082  1
  Si  Si662  1  0.251818  0.290420  0.221533  1
  Si  Si663  1  0.251711  0.922138  0.161618  1
  Si  Si664  1  0.251692  0.077907  0.221540  1
  Si  Si665  1  0.251772  0.290449  0.256079  1
  Si  Si666  1  0.251779  0.787479  0.349017  1
  Si  Si667  1  0.315117  0.147996  0.276853  1
  Si  Si668  1  0.315196  0.436025  0.312779  1
  Si  Si669  1  0.315212  0.711969  0.347619  1
  Si  Si670  1  0.315188  0.288078  0.312779  1
  Si  Si671  1  0.315235  0.436001  0.276842  1
  Si  Si672  1  0.315120  0.852045  0.163003  1
  Si  Si673  1  0.203534  0.389573  0.347834  1
  Si  Si674  1  0.203583  0.471154  0.268844  1
  Si  Si675  1  0.203469  0.918377  0.206044  1
  Si  Si676  1  0.203470  0.081667  0.268861  1
  Si  Si677  1  0.203532  0.471215  0.347832  1
  Si  Si678  1  0.203558  0.610478  0.304580  1
  Si  Si679  1  0.127735  0.119739  0.254501  1
  Si  Si680  1  0.127823  0.377141  0.289812  1
  Si  Si681  1  0.127820  0.742601  0.348226  1
  Si  Si682  1  0.127784  0.257453  0.289826  1
  Si  Si683  1  0.748154  0.787494  0.510997  1
  Si  Si684  1  0.748150  0.709487  0.545474  1
  Si  Si685  1  0.748153  0.077901  0.605430  1
  Si  Si686  1  0.748173  0.922118  0.545501  1
  Si  Si687  1  0.748174  0.709526  0.510956  1
  Si  Si688  1  0.748125  0.212505  0.418034  1
  Si  Si689  1  0.684782  0.852029  0.490184  1
  Si  Si690  1  0.684792  0.563916  0.454257  1
  Si  Si691  1  0.684705  0.288034  0.419438  1
  Si  Si692  1  0.684728  0.711987  0.454294  1
  Si  Si693  1  0.684719  0.563926  0.490189  1
  Si  Si694  1  0.684766  0.148007  0.604049  1
  Si  Si695  1  0.796382  0.610502  0.419258  1
  Si  Si696  1  0.796386  0.528809  0.498199  1
  Si  Si697  1  0.796431  0.081660  0.561006  1
  Si  Si698  1  0.796441  0.918397  0.498199  1
  Si  Si699  1  0.796467  0.528823  0.419238  1
  Si  Si700  1  0.796356  0.389522  0.462490  1
  Si  Si701  1  0.872150  0.880300  0.512552  1
  Si  Si702  1  0.872166  0.622904  0.477258  1
  Si  Si703  1  0.872094  0.257386  0.418830  1
  Si  Si704  1  0.872127  0.742634  0.477265  1
  Si  Si705  1  0.872123  0.622860  0.512556  1
  Si  Si706  1  0.872131  0.119739  0.604667  1
  Si  Si707  1  -0.000000  0.700923  0.542785  1
  Si  Si708  1  0.000000  0.079976  0.604303  1
  Si  Si709  1  -0.000000  0.780943  0.507122  1
  Si  Si710  1  0.000000  0.219098  0.419212  1
  Si  Si711  1  -0.000000  0.920070  0.542788  1
  Si  Si712  1  0.427237  0.529565  0.498608  1
  Si  Si713  1  0.427303  0.080949  0.560868  1
  Si  Si714  1  0.427247  0.610525  0.419479  1
  Si  Si715  1  0.427268  0.529580  0.419467  1
  Si  Si716  1  0.427227  0.389538  0.462701  1
  Si  Si717  1  0.427310  0.919106  0.498609  1
  Si  Si718  1  0.572737  0.610519  0.419460  1
  Si  Si719  1  0.572728  0.529508  0.498565  1
  Si  Si720  1  0.572798  0.080942  0.560810  1
  Si  Si721  1  0.572805  0.919096  0.498550  1
  Si  Si722  1  0.572761  0.529531  0.419426  1
  Si  Si723  1  0.572717  0.389502  0.462675  1
  Si  Si724  1  0.127889  0.742666  0.477319  1
  Si  Si725  1  0.127902  0.119702  0.604702  1
  Si  Si726  1  0.251827  0.709613  0.545569  1
  Si  Si727  1  0.251862  0.077908  0.605488  1
  Si  Si728  1  0.251851  0.787520  0.511046  1
  Si  Si729  1  0.251875  0.709645  0.511047  1
  Si  Si730  1  0.251820  0.212550  0.418084  1
  Si  Si731  1  0.251869  0.922160  0.545574  1
  Si  Si732  1  0.315287  0.564061  0.454343  1
  Si  Si733  1  0.315247  0.288044  0.419472  1
  Si  Si734  1  0.315321  0.852107  0.490275  1
  Si  Si735  1  0.315250  0.564038  0.490262  1
  Si  Si736  1  0.315319  0.147956  0.604087  1
  Si  Si737  1  0.315266  0.712019  0.454344  1
  Si  Si738  1  0.203576  0.528842  0.498233  1
  Si  Si739  1  0.203640  0.081675  0.561066  1
  Si  Si740  1  0.203603  0.610540  0.419295  1
  Si  Si741  1  0.203628  0.528899  0.419296  1
  Si  Si742  1  0.203578  0.389517  0.462497  1
  Si  Si743  1  0.203641  0.918381  0.498247  1
  Si  Si744  1  0.127904  0.623002  0.477316  1
  Si  Si745  1  0.127860  0.257393  0.418861  1
  Si  Si746  1  0.127915  0.880348  0.512624  1
  Si  Si747  1  0.127876  0.622933  0.512604  1
  Si  Si748  1  -0.000000  0.700991  0.507122  1
  Si  Si749  1  0.000000  0.079972  0.480729  1
  Si  Si750  1  -0.000000  0.299103  0.516437  1
  Si  Si751  1  0.000000  0.299059  0.480731  1
  Si  Si752  1  0.872003  0.257356  0.546205  1
  Si  Si753  1  -0.000000  0.920070  0.419213  1
  Si  Si754  1  0.871960  0.880409  0.418833  1
  Si  Si755  1  0.871938  0.119614  0.510853  1
  Si  Si756  1  0.872110  0.377125  0.510941  1
  Si  Si757  1  0.748143  0.290469  0.477978  1
  Si  Si758  1  0.748074  0.922133  0.417985  1
  Si  Si759  1  0.748120  0.212506  0.512451  1
  Si  Si760  1  0.748118  0.290479  0.512512  1
  Si  Si761  1  0.748147  0.787442  0.605407  1
  Si  Si762  1  0.748073  0.077835  0.477879  1
  Si  Si763  1  0.684689  0.436038  0.569230  1
  Si  Si764  1  0.684694  0.711997  0.604039  1
  Si  Si765  1  0.684545  0.147803  0.533141  1
  Si  Si766  1  0.684741  0.436064  0.533313  1
  Si  Si767  1  0.684573  0.852170  0.419418  1
  Si  Si768  1  0.684615  0.287944  0.569120  1
  Si  Si769  1  0.796397  0.471233  0.525326  1
  Si  Si770  1  0.796216  0.918392  0.462459  1
  Si  Si771  1  0.796308  0.389472  0.604242  1
  Si  Si772  1  0.796349  0.471159  0.604265  1
  Si  Si773  1  0.796378  0.610526  0.561039  1
  Si  Si774  1  0.796201  0.081651  0.525264  1
  Si  Si775  1  0.872074  0.377121  0.546255  1
  Si  Si776  1  0.872061  0.742661  0.604676  1
  Si  Si777  1  0.000000  0.219146  0.516434  1
  Si  Si778  1  -0.000000  0.780901  0.604307  1
  Si  Si779  1  0.572685  0.470515  0.604098  1
  Si  Si780  1  0.572712  0.610481  0.560841  1
  Si  Si781  1  0.572605  0.080913  0.524883  1
  Si  Si782  1  0.427187  0.389555  0.604105  1
  Si  Si783  1  0.427230  0.470476  0.524968  1
  Si  Si784  1  0.427131  0.919087  0.462686  1
  Si  Si785  1  0.427119  0.080931  0.524945  1
  Si  Si786  1  0.427196  0.470502  0.604117  1
  Si  Si787  1  0.427222  0.610507  0.560876  1
  Si  Si788  1  0.572720  0.470476  0.524951  1
  Si  Si789  1  0.572617  0.919068  0.462623  1
  Si  Si790  1  0.572676  0.389528  0.604065  1
  Si  Si791  1  0.127748  0.880304  0.418859  1
  Si  Si792  1  0.127849  0.377071  0.510940  1
  Si  Si793  1  0.251736  0.212574  0.512552  1
  Si  Si794  1  0.251818  0.290420  0.478004  1
  Si  Si795  1  0.251711  0.922138  0.418088  1
  Si  Si796  1  0.251692  0.077907  0.478011  1
  Si  Si797  1  0.251772  0.290449  0.512549  1
  Si  Si798  1  0.251779  0.787479  0.605488  1
  Si  Si799  1  0.315117  0.147996  0.533324  1
  Si  Si800  1  0.315196  0.436025  0.569249  1
  Si  Si801  1  0.315212  0.711969  0.604089  1
  Si  Si802  1  0.315188  0.288078  0.569249  1
  Si  Si803  1  0.315235  0.436001  0.533312  1
  Si  Si804  1  0.315120  0.852045  0.419473  1
  Si  Si805  1  0.203534  0.389573  0.604305  1
  Si  Si806  1  0.203583  0.471154  0.525314  1
  Si  Si807  1  0.203469  0.918377  0.462515  1
  Si  Si808  1  0.203470  0.081667  0.525332  1
  Si  Si809  1  0.203532  0.471215  0.604302  1
  Si  Si810  1  0.203558  0.610478  0.561051  1
  Si  Si811  1  0.127735  0.119739  0.510972  1
  Si  Si812  1  0.127823  0.377141  0.546283  1
  Si  Si813  1  0.127820  0.742601  0.604697  1
  Si  Si814  1  0.127784  0.257453  0.546297  1
  H  H815  1  0.742006  0.133087  0.116530  1
  H  H816  1  0.687985  0.227305  0.116560  1
  H  H817  1  0.809786  0.452640  0.116556  1
  H  H818  1  0.870401  0.200012  0.116565  1
  H  H819  1  0.000000  0.138719  0.116563  1
  H  H820  1  0.414866  0.453314  0.116598  1
  H  H821  1  0.585095  0.453260  0.116549  1
  H  H822  1  0.257972  0.133136  0.116594  1
  H  H823  1  0.312036  0.227265  0.116588  1
  H  H824  1  0.129597  0.199983  0.116592  1
  H  H825  1  0.742000  0.866857  0.116492  1
  H  H826  1  0.687888  0.772839  0.116549  1
  H  H827  1  0.809637  0.547382  0.116569  1
  H  H828  1  0.870280  0.800113  0.116571  1
  H  H829  1  0.585069  0.546775  0.116589  1
  H  H830  1  0.257868  0.866902  0.116599  1
  H  H831  1  0.311900  0.772732  0.116589  1
  H  H832  1  0.129493  0.800019  0.116588  1
  H  H833  1  -0.000000  0.861295  0.116568  1
  H  H834  1  0.190315  0.452682  0.116615  1
  H  H835  1  0.414853  0.546773  0.116611  1
  H  H836  1  0.190295  0.547442  0.116611  1
  H  H837  1  0.742006  0.133087  0.650440  1
  H  H838  1  0.687985  0.227305  0.650470  1
  H  H839  1  0.809786  0.452640  0.650466  1
  H  H840  1  0.870401  0.200012  0.650474  1
  H  H841  1  0.000000  0.138719  0.650473  1
  H  H842  1  0.414866  0.453314  0.650508  1
  H  H843  1  0.585095  0.453260  0.650459  1
  H  H844  1  0.257972  0.133136  0.650504  1
  H  H845  1  0.312036  0.227265  0.650498  1
  H  H846  1  0.129597  0.199983  0.650501  1
  H  H847  1  0.742000  0.866857  0.650402  1
  H  H848  1  0.687888  0.772839  0.650459  1
  H  H849  1  0.809637  0.547382  0.650479  1
  H  H850  1  0.870280  0.800113  0.650481  1
  H  H851  1  0.585069  0.546775  0.650499  1
  H  H852  1  0.257868  0.866902  0.650509  1
  H  H853  1  0.311900  0.772732  0.650499  1
  H  H854  1  0.129493  0.800019  0.650498  1
  H  H855  1  0.000000  0.861295  0.650478  1
  H  H856  1  0.190315  0.452682  0.650525  1
  H  H857  1  0.414853  0.546773  0.650521  1
  H  H858  1  0.190295  0.547442  0.650521  1
