# generated using pymatgen
data_Si18H2O37
_symmetry_space_group_name_H-M   'P 1'
_cell_length_a   21.16392848
_cell_length_b   38.13318385
_cell_length_c   107.85849517
_cell_angle_alpha   149.99978651
_cell_angle_beta   90.00000000
_cell_angle_gamma   90.00000000
_symmetry_Int_Tables_number   1
_chemical_formula_structural   Si18H2O37
_chemical_formula_sum   'Si396 H44 O814'
_cell_volume   43523.7709877
_cell_formula_units_Z   22
loop_
 _symmetry_equiv_pos_site_id
 _symmetry_equiv_pos_as_xyz
  1  'x, y, z'
loop_
 _atom_site_type_symbol
 _atom_site_label
 _atom_site_symmetry_multiplicity
 _atom_site_fract_x
 _atom_site_fract_y
 _atom_site_fract_z
 _atom_site_occupancy
  O  O1  1  0.742006  0.133087  0.101088  1
  O  O2  1  0.687985  0.227305  0.101112  1
  O  O3  1  0.809786  0.452640  0.101109  1
  O  O4  1  0.870401  0.200012  0.101116  1
  O  O5  1  0.000000  0.138719  0.101115  1
  O  O6  1  0.414866  0.453314  0.101142  1
  O  O7  1  0.585095  0.453260  0.101104  1
  O  O8  1  0.257972  0.133136  0.101139  1
  O  O9  1  0.312036  0.227265  0.101134  1
  O  O10  1  0.129597  0.199983  0.101137  1
  O  O11  1  0.742000  0.866857  0.101058  1
  O  O12  1  0.687888  0.772839  0.101103  1
  O  O13  1  0.809637  0.547382  0.101119  1
  O  O14  1  0.870280  0.800113  0.101121  1
  O  O15  1  0.585069  0.546775  0.101135  1
  O  O16  1  0.257868  0.866902  0.101143  1
  O  O17  1  0.311900  0.772732  0.101135  1
  O  O18  1  0.129493  0.800019  0.101134  1
  O  O19  1  -0.000000  0.861295  0.101118  1
  O  O20  1  0.742033  0.866916  0.223712  1
  O  O21  1  0.742030  0.733677  0.223679  1
  O  O22  1  0.742006  0.133087  0.305208  1
  O  O23  1  0.703201  0.746613  0.180878  1
  O  O24  1  0.703190  0.644114  0.211670  1
  O  O25  1  0.703210  0.102446  0.274400  1
  O  O26  1  0.703229  0.897569  0.211672  1
  O  O27  1  0.703247  0.644099  0.180838  1
  O  O28  1  0.703178  0.253395  0.131928  1
  O  O29  1  0.736869  0.764590  0.209123  1
  O  O30  1  0.783768  0.577827  0.219058  1
  O  O31  1  0.736854  0.000000  0.257161  1
  O  O32  1  0.817618  0.765875  0.192074  1
  O  O33  1  0.817602  0.679687  0.222268  1
  O  O34  1  0.817620  0.086091  0.274990  1
  O  O35  1  0.817641  0.913937  0.222280  1
  O  O36  1  0.817650  0.679742  0.192055  1
  O  O37  1  0.817588  0.234128  0.131328  1
  O  O38  1  0.736361  0.875103  0.183355  1
  O  O39  1  0.736372  0.527831  0.137976  1
  O  O40  1  0.736256  0.347206  0.146501  1
  O  O41  1  0.736283  0.652819  0.138007  1
  O  O42  1  0.736287  0.527874  0.183368  1
  O  O43  1  0.736349  0.124947  0.259853  1
  O  O44  1  0.688004  0.772725  0.166046  1
  O  O45  1  0.688019  0.545384  0.166038  1
  O  O46  1  0.687985  0.227305  0.305232  1
  O  O47  1  0.850540  0.667436  0.148232  1
  O  O48  1  0.850542  0.563347  0.194865  1
  O  O49  1  0.850575  0.104061  0.258572  1
  O  O50  1  0.850589  0.895997  0.194867  1
  O  O51  1  0.850613  0.563393  0.148223  1
  O  O52  1  0.850507  0.332589  0.147779  1
  O  O53  1  0.783784  0.577843  0.132893  1
  O  O54  1  0.783788  0.000000  0.219055  1
  O  O55  1  0.809648  0.452602  0.174160  1
  O  O56  1  0.809786  0.452640  0.305229  1
  O  O57  1  0.809685  0.094706  0.232147  1
  O  O58  1  0.870429  0.800023  0.182763  1
  O  O59  1  0.870440  0.600007  0.182762  1
  O  O60  1  0.870401  0.200012  0.305236  1
  O  O61  1  0.938942  0.909221  0.216374  1
  O  O62  1  0.938964  0.655531  0.183140  1
  O  O63  1  0.938883  0.253701  0.134375  1
  O  O64  1  0.938911  0.746322  0.183142  1
  O  O65  1  0.938904  0.655510  0.216392  1
  O  O66  1  0.938926  0.090821  0.271976  1
  O  O67  1  0.000000  0.000000  0.256606  1
  O  O68  1  0.000000  0.761809  0.207997  1
  O  O69  1  0.000000  0.138719  0.305235  1
  O  O70  1  0.000000  0.861325  0.220303  1
  O  O71  1  0.736846  0.764548  0.257142  1
  O  O72  1  0.736837  0.235402  0.149159  1
  O  O73  1  0.783746  0.422220  0.187308  1
  O  O74  1  0.000000  0.238239  0.149750  1
  O  O75  1  0.000000  0.722576  0.220301  1
  O  O76  1  0.000000  0.761740  0.256605  1
  O  O77  1  0.618953  0.875071  0.187627  1
  O  O78  1  0.618934  0.548823  0.146557  1
  O  O79  1  0.618845  0.326126  0.142185  1
  O  O80  1  0.618871  0.673889  0.146598  1
  O  O81  1  0.618867  0.548837  0.187633  1
  O  O82  1  0.618940  0.124974  0.264139  1
  O  O83  1  0.381144  0.548952  0.146620  1
  O  O84  1  0.381089  0.326169  0.142215  1
  O  O85  1  0.381187  0.875117  0.187698  1
  O  O86  1  0.381099  0.548932  0.187683  1
  O  O87  1  0.381183  0.124944  0.264187  1
  O  O88  1  0.381113  0.673902  0.146625  1
  O  O89  1  0.499975  0.534275  0.190925  1
  O  O90  1  0.500068  0.094350  0.248680  1
  O  O91  1  0.499991  0.628676  0.134404  1
  O  O92  1  0.500025  0.534295  0.134383  1
  O  O93  1  0.499967  0.371366  0.157683  1
  O  O94  1  0.500074  0.905699  0.190923  1
  O  O95  1  0.414864  0.453298  0.174594  1
  O  O96  1  0.414866  0.453314  0.305262  1
  O  O97  1  0.414844  0.093449  0.231801  1
  O  O98  1  0.585079  0.453246  0.174565  1
  O  O99  1  0.585095  0.453260  0.305224  1
  O  O100  1  0.585082  0.093463  0.231755  1
  O  O101  1  0.415578  0.000000  0.219544  1
  O  O102  1  0.415478  0.419953  0.186861  1
  O  O103  1  0.415513  0.580110  0.133837  1
  O  O104  1  0.584510  0.580078  0.133811  1
  O  O105  1  0.584577  0.000000  0.219488  1
  O  O106  1  0.584473  0.419930  0.186843  1
  O  O107  1  0.584464  0.580040  0.219510  1
  O  O108  1  0.415482  0.580088  0.219543  1
  O  O109  1  0.257984  0.733810  0.223755  1
  O  O110  1  0.257972  0.133136  0.305259  1
  O  O111  1  0.257990  0.866932  0.223756  1
  O  O112  1  0.296781  0.644221  0.211738  1
  O  O113  1  0.296827  0.102416  0.274437  1
  O  O114  1  0.296790  0.746627  0.180913  1
  O  O115  1  0.296826  0.644248  0.180919  1
  O  O116  1  0.296766  0.253438  0.131968  1
  O  O117  1  0.296833  0.897647  0.211741  1
  O  O118  1  0.263097  0.764640  0.257218  1
  O  O119  1  0.263166  0.000000  0.257220  1
  O  O120  1  0.263171  0.764676  0.209181  1
  O  O121  1  0.182370  0.679793  0.222327  1
  O  O122  1  0.182404  0.086078  0.275027  1
  O  O123  1  0.182387  0.765893  0.192115  1
  O  O124  1  0.182417  0.679840  0.192112  1
  O  O125  1  0.182357  0.234173  0.131369  1
  O  O126  1  0.182412  0.913980  0.222337  1
  O  O127  1  0.263723  0.527983  0.138044  1
  O  O128  1  0.263670  0.347179  0.146502  1
  O  O129  1  0.263760  0.875163  0.183417  1
  O  O130  1  0.263685  0.527943  0.183408  1
  O  O131  1  0.263756  0.124897  0.259879  1
  O  O132  1  0.263693  0.652878  0.138042  1
  O  O133  1  0.312007  0.545514  0.166100  1
  O  O134  1  0.312036  0.227265  0.305254  1
  O  O135  1  0.312045  0.772796  0.166106  1
  O  O136  1  0.149439  0.563411  0.194901  1
  O  O137  1  0.149495  0.104043  0.258609  1
  O  O138  1  0.149453  0.667471  0.148272  1
  O  O139  1  0.149477  0.563490  0.148271  1
  O  O140  1  0.149426  0.332587  0.147791  1
  O  O141  1  0.149502  0.896011  0.194916  1
  O  O142  1  0.216258  0.000000  0.219088  1
  O  O143  1  0.216216  0.422180  0.187305  1
  O  O144  1  0.216259  0.577868  0.132915  1
  O  O145  1  0.190305  0.452620  0.174176  1
  O  O146  1  0.190315  0.452682  0.101156  1
  O  O147  1  0.190285  0.094790  0.232221  1
  O  O148  1  0.129600  0.600097  0.182805  1
  O  O149  1  0.129597  0.199983  0.305257  1
  O  O150  1  0.129620  0.800069  0.182815  1
  O  O151  1  0.061117  0.655637  0.183178  1
  O  O152  1  0.061043  0.253682  0.134380  1
  O  O153  1  0.061104  0.909272  0.216421  1
  O  O154  1  0.061063  0.655525  0.216401  1
  O  O155  1  0.061092  0.090773  0.271990  1
  O  O156  1  0.061070  0.746376  0.183177  1
  O  O157  1  0.263121  0.235392  0.149184  1
  O  O158  1  0.216180  0.577826  0.219079  1
  O  O159  1  0.742000  0.266305  0.182637  1
  O  O160  1  0.742000  0.866857  0.305178  1
  O  O161  1  0.741997  0.133091  0.182567  1
  O  O162  1  0.703203  0.355883  0.194654  1
  O  O163  1  0.703072  0.897699  0.131909  1
  O  O164  1  0.703124  0.253356  0.225408  1
  O  O165  1  0.703157  0.355846  0.225469  1
  O  O166  1  0.703184  0.746584  0.274377  1
  O  O167  1  0.703062  0.102273  0.194539  1
  O  O168  1  0.736806  0.000000  0.149081  1
  O  O169  1  0.736824  0.235395  0.197179  1
  O  O170  1  0.817605  0.320276  0.184052  1
  O  O171  1  0.817494  0.913989  0.131317  1
  O  O172  1  0.817546  0.234163  0.214247  1
  O  O173  1  0.817564  0.320283  0.214284  1
  O  O174  1  0.817590  0.765827  0.274977  1
  O  O175  1  0.817486  0.086003  0.183982  1
  O  O176  1  0.736248  0.472093  0.268355  1
  O  O177  1  0.736271  0.652870  0.259863  1
  O  O178  1  0.736082  0.124827  0.222889  1
  O  O179  1  0.736306  0.472168  0.222999  1
  O  O180  1  0.736103  0.875196  0.146462  1
  O  O181  1  0.736187  0.347046  0.268279  1
  O  O182  1  0.687991  0.454589  0.240303  1
  O  O183  1  0.687888  0.772839  0.305223  1
  O  O184  1  0.687811  0.227125  0.240185  1
  O  O185  1  0.850551  0.436657  0.211483  1
  O  O186  1  0.850365  0.896103  0.147772  1
  O  O187  1  0.850445  0.332535  0.258095  1
  O  O188  1  0.850497  0.436610  0.258127  1
  O  O189  1  0.850514  0.667472  0.258587  1
  O  O190  1  0.850347  0.103938  0.211405  1
  O  O191  1  0.783556  0.000000  0.187272  1
  O  O192  1  0.000000  0.277460  0.186074  1
  O  O193  1  0.783700  0.422159  0.273462  1
  O  O194  1  0.809659  0.547447  0.232208  1
  O  O195  1  0.809637  0.547382  0.305239  1
  O  O196  1  0.809704  0.905353  0.174172  1
  O  O197  1  0.870385  0.399997  0.223585  1
  O  O198  1  0.870280  0.800113  0.305241  1
  O  O199  1  0.870237  0.199906  0.223524  1
  O  O200  1  0.938861  0.344485  0.223221  1
  O  O201  1  0.938892  0.746349  0.271991  1
  O  O202  1  0.938770  0.090734  0.189921  1
  O  O203  1  0.938911  0.344500  0.189968  1
  O  O204  1  0.938784  0.909303  0.134370  1
  O  O205  1  0.938843  0.253683  0.223204  1
  O  O206  1  0.000000  0.238294  0.198397  1
  O  O207  1  0.000000  0.138751  0.186071  1
  O  O208  1  0.618828  0.451145  0.259780  1
  O  O209  1  0.618852  0.673867  0.264150  1
  O  O210  1  0.618697  0.124825  0.218598  1
  O  O211  1  0.618877  0.451162  0.218723  1
  O  O212  1  0.618716  0.875138  0.142155  1
  O  O213  1  0.618789  0.326107  0.259718  1
  O  O214  1  0.380960  0.124962  0.218720  1
  O  O215  1  0.381047  0.451143  0.259800  1
  O  O216  1  0.381077  0.673878  0.264191  1
  O  O217  1  0.381044  0.326185  0.259791  1
  O  O218  1  0.381093  0.451113  0.218724  1
  O  O219  1  0.380965  0.875058  0.142208  1
  O  O220  1  0.499932  0.371391  0.271987  1
  O  O221  1  0.499982  0.465733  0.215455  1
  O  O222  1  0.499855  0.905661  0.157654  1
  O  O223  1  0.499846  0.094335  0.215419  1
  O  O224  1  0.499931  0.465772  0.272005  1
  O  O225  1  0.499972  0.628651  0.248700  1
  O  O226  1  0.414868  0.546749  0.231813  1
  O  O227  1  0.414853  0.546773  0.101153  1
  O  O228  1  0.414855  0.906587  0.174591  1
  O  O229  1  0.585085  0.546741  0.231792  1
  O  O230  1  0.585069  0.546775  0.305255  1
  O  O231  1  0.585088  0.906549  0.174529  1
  O  O232  1  0.415440  0.419980  0.272578  1
  O  O233  1  0.415357  0.000000  0.186847  1
  O  O234  1  0.584323  0.000000  0.186798  1
  O  O235  1  0.584415  0.419979  0.272556  1
  O  O236  1  0.257831  0.133156  0.182663  1
  O  O237  1  0.257923  0.266256  0.182659  1
  O  O238  1  0.257868  0.866902  0.305263  1
  O  O239  1  0.296710  0.253425  0.225493  1
  O  O240  1  0.296773  0.355815  0.194667  1
  O  O241  1  0.296659  0.897625  0.131971  1
  O  O242  1  0.296648  0.102426  0.194674  1
  O  O243  1  0.296731  0.355839  0.225500  1
  O  O244  1  0.296747  0.746617  0.274441  1
  O  O245  1  0.263041  0.235418  0.197240  1
  O  O246  1  0.262991  0.000000  0.149190  1
  O  O247  1  0.182288  0.234231  0.214322  1
  O  O248  1  0.182360  0.320228  0.184065  1
  O  O249  1  0.182250  0.913944  0.131369  1
  O  O250  1  0.182234  0.086099  0.184079  1
  O  O251  1  0.182317  0.320278  0.214311  1
  O  O252  1  0.182330  0.765823  0.275024  1
  O  O253  1  0.263550  0.124929  0.222998  1
  O  O254  1  0.263635  0.472113  0.268375  1
  O  O255  1  0.263660  0.652804  0.259873  1
  O  O256  1  0.263633  0.347237  0.268375  1
  O  O257  1  0.263673  0.472072  0.222984  1
  O  O258  1  0.263551  0.875114  0.146512  1
  O  O259  1  0.311897  0.227310  0.240316  1
  O  O260  1  0.311946  0.454549  0.240308  1
  O  O261  1  0.311900  0.772732  0.305255  1
  O  O262  1  0.149371  0.332642  0.258163  1
  O  O263  1  0.149425  0.436577  0.211471  1
  O  O264  1  0.149310  0.896001  0.147798  1
  O  O265  1  0.149305  0.104039  0.211495  1
  O  O266  1  0.149388  0.436658  0.258154  1
  O  O267  1  0.149401  0.667410  0.258598  1
  O  O268  1  0.216141  0.422222  0.273497  1
  O  O269  1  0.216094  0.000000  0.187315  1
  O  O270  1  0.190300  0.547374  0.232205  1
  O  O271  1  0.190295  0.547442  0.101152  1
  O  O272  1  0.190281  0.905261  0.174192  1
  O  O273  1  0.129472  0.200026  0.223610  1
  O  O274  1  0.129547  0.399976  0.223592  1
  O  O275  1  0.129493  0.800019  0.305254  1
  O  O276  1  0.060937  0.090828  0.189991  1
  O  O277  1  0.061016  0.344535  0.223242  1
  O  O278  1  0.061043  0.746287  0.271985  1
  O  O279  1  0.061002  0.253770  0.223251  1
  O  O280  1  0.061062  0.344438  0.189955  1
  O  O281  1  0.060951  0.909216  0.134384  1
  O  O282  1  -0.000000  0.861295  0.305238  1
  O  O283  1  0.000000  0.000000  0.149749  1
  O  O284  1  0.742033  0.866916  0.427831  1
  O  O285  1  0.742030  0.733677  0.427799  1
  O  O286  1  0.742006  0.133087  0.509328  1
  O  O287  1  0.703201  0.746613  0.384997  1
  O  O288  1  0.703190  0.644114  0.415790  1
  O  O289  1  0.703210  0.102446  0.478520  1
  O  O290  1  0.703229  0.897569  0.415792  1
  O  O291  1  0.703247  0.644099  0.384958  1
  O  O292  1  0.703178  0.253395  0.336047  1
  O  O293  1  0.736869  0.764590  0.413243  1
  O  O294  1  0.783768  0.577827  0.423177  1
  O  O295  1  0.736854  0.000000  0.461281  1
  O  O296  1  0.817618  0.765875  0.396194  1
  O  O297  1  0.817602  0.679687  0.426388  1
  O  O298  1  0.817620  0.086091  0.479109  1
  O  O299  1  0.817641  0.913937  0.426400  1
  O  O300  1  0.817650  0.679742  0.396175  1
  O  O301  1  0.817588  0.234128  0.335448  1
  O  O302  1  0.736361  0.875103  0.387475  1
  O  O303  1  0.736372  0.527831  0.342096  1
  O  O304  1  0.736256  0.347206  0.350621  1
  O  O305  1  0.736283  0.652819  0.342127  1
  O  O306  1  0.736287  0.527874  0.387488  1
  O  O307  1  0.736349  0.124947  0.463972  1
  O  O308  1  0.688004  0.772725  0.370165  1
  O  O309  1  0.688019  0.545384  0.370158  1
  O  O310  1  0.687985  0.227305  0.509352  1
  O  O311  1  0.850540  0.667436  0.352352  1
  O  O312  1  0.850542  0.563347  0.398985  1
  O  O313  1  0.850575  0.104061  0.462692  1
  O  O314  1  0.850589  0.895997  0.398987  1
  O  O315  1  0.850613  0.563393  0.352343  1
  O  O316  1  0.850507  0.332589  0.351899  1
  O  O317  1  0.783784  0.577843  0.337013  1
  O  O318  1  0.783788  0.000000  0.423174  1
  O  O319  1  0.809648  0.452602  0.378280  1
  O  O320  1  0.809786  0.452640  0.509349  1
  O  O321  1  0.809685  0.094706  0.436266  1
  O  O322  1  0.870429  0.800023  0.386883  1
  O  O323  1  0.870440  0.600007  0.386882  1
  O  O324  1  0.870401  0.200012  0.509355  1
  O  O325  1  0.938942  0.909221  0.420494  1
  O  O326  1  0.938964  0.655531  0.387260  1
  O  O327  1  0.938883  0.253701  0.338495  1
  O  O328  1  0.938911  0.746322  0.387262  1
  O  O329  1  0.938904  0.655510  0.420511  1
  O  O330  1  0.938926  0.090821  0.476096  1
  O  O331  1  0.000000  0.000000  0.460726  1
  O  O332  1  0.000000  0.761809  0.412117  1
  O  O333  1  0.000000  0.138719  0.509354  1
  O  O334  1  0.000000  0.861325  0.424423  1
  O  O335  1  0.736846  0.764548  0.461262  1
  O  O336  1  0.736837  0.235402  0.353278  1
  O  O337  1  0.783746  0.422220  0.391428  1
  O  O338  1  0.000000  0.238239  0.353870  1
  O  O339  1  0.000000  0.722576  0.424421  1
  O  O340  1  0.000000  0.761740  0.460724  1
  O  O341  1  0.618953  0.875071  0.391746  1
  O  O342  1  0.618934  0.548823  0.350677  1
  O  O343  1  0.618845  0.326126  0.346305  1
  O  O344  1  0.618871  0.673889  0.350718  1
  O  O345  1  0.618867  0.548837  0.391753  1
  O  O346  1  0.618940  0.124974  0.468259  1
  O  O347  1  0.381144  0.548952  0.350739  1
  O  O348  1  0.381089  0.326169  0.346335  1
  O  O349  1  0.381187  0.875117  0.391818  1
  O  O350  1  0.381099  0.548932  0.391803  1
  O  O351  1  0.381183  0.124944  0.468307  1
  O  O352  1  0.381113  0.673902  0.350745  1
  O  O353  1  0.499975  0.534275  0.395044  1
  O  O354  1  0.500068  0.094350  0.452800  1
  O  O355  1  0.499991  0.628676  0.338523  1
  O  O356  1  0.500025  0.534295  0.338502  1
  O  O357  1  0.499967  0.371366  0.361803  1
  O  O358  1  0.500074  0.905699  0.395042  1
  O  O359  1  0.414864  0.453298  0.378714  1
  O  O360  1  0.414866  0.453314  0.509382  1
  O  O361  1  0.414844  0.093449  0.435921  1
  O  O362  1  0.585079  0.453246  0.378685  1
  O  O363  1  0.585095  0.453260  0.509343  1
  O  O364  1  0.585082  0.093463  0.435875  1
  O  O365  1  0.415578  0.000000  0.423663  1
  O  O366  1  0.415478  0.419953  0.390981  1
  O  O367  1  0.415513  0.580110  0.337957  1
  O  O368  1  0.584510  0.580078  0.337931  1
  O  O369  1  0.584577  0.000000  0.423608  1
  O  O370  1  0.584473  0.419930  0.390963  1
  O  O371  1  0.584464  0.580040  0.423629  1
  O  O372  1  0.415482  0.580088  0.423663  1
  O  O373  1  0.257984  0.733810  0.427875  1
  O  O374  1  0.257972  0.133136  0.509379  1
  O  O375  1  0.257990  0.866932  0.427876  1
  O  O376  1  0.296781  0.644221  0.415858  1
  O  O377  1  0.296827  0.102416  0.478556  1
  O  O378  1  0.296790  0.746627  0.385033  1
  O  O379  1  0.296826  0.644248  0.385039  1
  O  O380  1  0.296766  0.253438  0.336088  1
  O  O381  1  0.296833  0.897647  0.415860  1
  O  O382  1  0.263097  0.764640  0.461338  1
  O  O383  1  0.263166  0.000000  0.461340  1
  O  O384  1  0.263171  0.764676  0.413301  1
  O  O385  1  0.182370  0.679793  0.426447  1
  O  O386  1  0.182404  0.086078  0.479147  1
  O  O387  1  0.182387  0.765893  0.396235  1
  O  O388  1  0.182417  0.679840  0.396231  1
  O  O389  1  0.182357  0.234173  0.335489  1
  O  O390  1  0.182412  0.913980  0.426457  1
  O  O391  1  0.263723  0.527983  0.342164  1
  O  O392  1  0.263670  0.347179  0.350622  1
  O  O393  1  0.263760  0.875163  0.387537  1
  O  O394  1  0.263685  0.527943  0.387528  1
  O  O395  1  0.263756  0.124897  0.463999  1
  O  O396  1  0.263693  0.652878  0.342162  1
  O  O397  1  0.312007  0.545514  0.370220  1
  O  O398  1  0.312036  0.227265  0.509374  1
  O  O399  1  0.312045  0.772796  0.370226  1
  O  O400  1  0.149439  0.563411  0.399021  1
  O  O401  1  0.149495  0.104043  0.462729  1
  O  O402  1  0.149453  0.667471  0.352392  1
  O  O403  1  0.149477  0.563490  0.352391  1
  O  O404  1  0.149426  0.332587  0.351911  1
  O  O405  1  0.149502  0.896011  0.399036  1
  O  O406  1  0.216258  0.000000  0.423207  1
  O  O407  1  0.216216  0.422180  0.391425  1
  O  O408  1  0.216259  0.577868  0.337035  1
  O  O409  1  0.190305  0.452620  0.378296  1
  O  O410  1  0.190315  0.452682  0.305276  1
  O  O411  1  0.190285  0.094790  0.436341  1
  O  O412  1  0.129600  0.600097  0.386925  1
  O  O413  1  0.129597  0.199983  0.509377  1
  O  O414  1  0.129620  0.800069  0.386935  1
  O  O415  1  0.061117  0.655637  0.387298  1
  O  O416  1  0.061043  0.253682  0.338500  1
  O  O417  1  0.061104  0.909272  0.420541  1
  O  O418  1  0.061063  0.655525  0.420521  1
  O  O419  1  0.061092  0.090773  0.476110  1
  O  O420  1  0.061070  0.746376  0.387297  1
  O  O421  1  0.263121  0.235392  0.353304  1
  O  O422  1  0.216180  0.577826  0.423198  1
  O  O423  1  0.742000  0.266305  0.386757  1
  O  O424  1  0.742000  0.866857  0.509297  1
  O  O425  1  0.741997  0.133091  0.386687  1
  O  O426  1  0.703203  0.355883  0.398774  1
  O  O427  1  0.703072  0.897699  0.336028  1
  O  O428  1  0.703124  0.253356  0.429528  1
  O  O429  1  0.703157  0.355846  0.429589  1
  O  O430  1  0.703184  0.746584  0.478497  1
  O  O431  1  0.703062  0.102273  0.398659  1
  O  O432  1  0.736806  0.000000  0.353201  1
  O  O433  1  0.736824  0.235395  0.401299  1
  O  O434  1  0.817605  0.320276  0.388172  1
  O  O435  1  0.817494  0.913989  0.335437  1
  O  O436  1  0.817546  0.234163  0.418367  1
  O  O437  1  0.817564  0.320283  0.418404  1
  O  O438  1  0.817590  0.765827  0.479097  1
  O  O439  1  0.817486  0.086003  0.388102  1
  O  O440  1  0.736248  0.472093  0.472474  1
  O  O441  1  0.736271  0.652870  0.463983  1
  O  O442  1  0.736082  0.124827  0.427009  1
  O  O443  1  0.736306  0.472168  0.427119  1
  O  O444  1  0.736103  0.875196  0.350582  1
  O  O445  1  0.736187  0.347046  0.472399  1
  O  O446  1  0.687991  0.454589  0.444423  1
  O  O447  1  0.687888  0.772839  0.509343  1
  O  O448  1  0.687811  0.227125  0.444305  1
  O  O449  1  0.850551  0.436657  0.415603  1
  O  O450  1  0.850365  0.896103  0.351892  1
  O  O451  1  0.850445  0.332535  0.462214  1
  O  O452  1  0.850497  0.436610  0.462246  1
  O  O453  1  0.850514  0.667472  0.462707  1
  O  O454  1  0.850347  0.103938  0.415525  1
  O  O455  1  0.783556  0.000000  0.391392  1
  O  O456  1  0.000000  0.277460  0.390194  1
  O  O457  1  0.783700  0.422159  0.477582  1
  O  O458  1  0.809659  0.547447  0.436328  1
  O  O459  1  0.809637  0.547382  0.509359  1
  O  O460  1  0.809704  0.905353  0.378292  1
  O  O461  1  0.870385  0.399997  0.427704  1
  O  O462  1  0.870280  0.800113  0.509361  1
  O  O463  1  0.870237  0.199906  0.427644  1
  O  O464  1  0.938861  0.344485  0.427341  1
  O  O465  1  0.938892  0.746349  0.476111  1
  O  O466  1  0.938770  0.090734  0.394040  1
  O  O467  1  0.938911  0.344500  0.394088  1
  O  O468  1  0.938784  0.909303  0.338490  1
  O  O469  1  0.938843  0.253683  0.427324  1
  O  O470  1  0.000000  0.238294  0.402517  1
  O  O471  1  0.000000  0.138751  0.390190  1
  O  O472  1  0.618828  0.451145  0.463899  1
  O  O473  1  0.618852  0.673867  0.468269  1
  O  O474  1  0.618697  0.124825  0.422718  1
  O  O475  1  0.618877  0.451162  0.422843  1
  O  O476  1  0.618716  0.875138  0.346275  1
  O  O477  1  0.618789  0.326107  0.463838  1
  O  O478  1  0.380960  0.124962  0.422839  1
  O  O479  1  0.381047  0.451143  0.463920  1
  O  O480  1  0.381077  0.673878  0.468311  1
  O  O481  1  0.381044  0.326185  0.463911  1
  O  O482  1  0.381093  0.451113  0.422844  1
  O  O483  1  0.380965  0.875058  0.346328  1
  O  O484  1  0.499932  0.371391  0.476107  1
  O  O485  1  0.499982  0.465733  0.419575  1
  O  O486  1  0.499855  0.905661  0.361774  1
  O  O487  1  0.499846  0.094335  0.419539  1
  O  O488  1  0.499931  0.465772  0.476125  1
  O  O489  1  0.499972  0.628651  0.452820  1
  O  O490  1  0.414868  0.546749  0.435933  1
  O  O491  1  0.414853  0.546773  0.305273  1
  O  O492  1  0.414855  0.906587  0.378711  1
  O  O493  1  0.585085  0.546741  0.435912  1
  O  O494  1  0.585069  0.546775  0.509375  1
  O  O495  1  0.585088  0.906549  0.378649  1
  O  O496  1  0.415440  0.419980  0.476698  1
  O  O497  1  0.415357  0.000000  0.390967  1
  O  O498  1  0.584323  0.000000  0.390918  1
  O  O499  1  0.584415  0.419979  0.476676  1
  O  O500  1  0.257831  0.133156  0.386782  1
  O  O501  1  0.257923  0.266256  0.386779  1
  O  O502  1  0.257868  0.866902  0.509383  1
  O  O503  1  0.296710  0.253425  0.429613  1
  O  O504  1  0.296773  0.355815  0.398787  1
  O  O505  1  0.296659  0.897625  0.336091  1
  O  O506  1  0.296648  0.102426  0.398794  1
  O  O507  1  0.296731  0.355839  0.429620  1
  O  O508  1  0.296747  0.746617  0.478561  1
  O  O509  1  0.263041  0.235418  0.401360  1
  O  O510  1  0.262991  0.000000  0.353310  1
  O  O511  1  0.182288  0.234231  0.418442  1
  O  O512  1  0.182360  0.320228  0.388185  1
  O  O513  1  0.182250  0.913944  0.335489  1
  O  O514  1  0.182234  0.086099  0.388199  1
  O  O515  1  0.182317  0.320278  0.418431  1
  O  O516  1  0.182330  0.765823  0.479143  1
  O  O517  1  0.263550  0.124929  0.427118  1
  O  O518  1  0.263635  0.472113  0.472495  1
  O  O519  1  0.263660  0.652804  0.463993  1
  O  O520  1  0.263633  0.347237  0.472494  1
  O  O521  1  0.263673  0.472072  0.427104  1
  O  O522  1  0.263551  0.875114  0.350632  1
  O  O523  1  0.311897  0.227310  0.444436  1
  O  O524  1  0.311946  0.454549  0.444428  1
  O  O525  1  0.311900  0.772732  0.509375  1
  O  O526  1  0.149371  0.332642  0.462283  1
  O  O527  1  0.149425  0.436577  0.415591  1
  O  O528  1  0.149310  0.896001  0.351917  1
  O  O529  1  0.149305  0.104039  0.415614  1
  O  O530  1  0.149388  0.436658  0.462274  1
  O  O531  1  0.149401  0.667410  0.462718  1
  O  O532  1  0.216141  0.422222  0.477617  1
  O  O533  1  0.216094  0.000000  0.391435  1
  O  O534  1  0.190300  0.547374  0.436325  1
  O  O535  1  0.190295  0.547442  0.305272  1
  O  O536  1  0.190281  0.905261  0.378312  1
  O  O537  1  0.129472  0.200026  0.427730  1
  O  O538  1  0.129547  0.399976  0.427712  1
  O  O539  1  0.129493  0.800019  0.509374  1
  O  O540  1  0.060937  0.090828  0.394110  1
  O  O541  1  0.061016  0.344535  0.427362  1
  O  O542  1  0.061043  0.746287  0.476105  1
  O  O543  1  0.061002  0.253770  0.427371  1
  O  O544  1  0.061062  0.344438  0.394075  1
  O  O545  1  0.060951  0.909216  0.338503  1
  O  O546  1  0.000000  0.861295  0.509358  1
  O  O547  1  0.000000  0.000000  0.353869  1
  O  O548  1  0.742033  0.866916  0.631951  1
  O  O549  1  0.742030  0.733677  0.631919  1
  O  O550  1  0.742006  0.133087  0.713448  1
  O  O551  1  0.703201  0.746613  0.589117  1
  O  O552  1  0.703190  0.644114  0.619909  1
  O  O553  1  0.703210  0.102446  0.682640  1
  O  O554  1  0.703229  0.897569  0.619912  1
  O  O555  1  0.703247  0.644099  0.589078  1
  O  O556  1  0.703178  0.253395  0.540167  1
  O  O557  1  0.736869  0.764590  0.617363  1
  O  O558  1  0.783768  0.577827  0.627297  1
  O  O559  1  0.736854  0.000000  0.665400  1
  O  O560  1  0.817618  0.765875  0.600314  1
  O  O561  1  0.817602  0.679687  0.630508  1
  O  O562  1  0.817620  0.086091  0.683229  1
  O  O563  1  0.817641  0.913937  0.630520  1
  O  O564  1  0.817650  0.679742  0.600295  1
  O  O565  1  0.817588  0.234128  0.539568  1
  O  O566  1  0.736361  0.875103  0.591595  1
  O  O567  1  0.736372  0.527831  0.546216  1
  O  O568  1  0.736256  0.347206  0.554741  1
  O  O569  1  0.736283  0.652819  0.546246  1
  O  O570  1  0.736287  0.527874  0.591607  1
  O  O571  1  0.736349  0.124947  0.668092  1
  O  O572  1  0.688004  0.772725  0.574285  1
  O  O573  1  0.688019  0.545384  0.574278  1
  O  O574  1  0.687985  0.227305  0.713472  1
  O  O575  1  0.850540  0.667436  0.556472  1
  O  O576  1  0.850542  0.563347  0.603105  1
  O  O577  1  0.850575  0.104061  0.666811  1
  O  O578  1  0.850589  0.895997  0.603107  1
  O  O579  1  0.850613  0.563393  0.556463  1
  O  O580  1  0.850507  0.332589  0.556019  1
  O  O581  1  0.783784  0.577843  0.541133  1
  O  O582  1  0.783788  0.000000  0.627294  1
  O  O583  1  0.809648  0.452602  0.582400  1
  O  O584  1  0.809786  0.452640  0.713468  1
  O  O585  1  0.809685  0.094706  0.640386  1
  O  O586  1  0.870429  0.800023  0.591003  1
  O  O587  1  0.870440  0.600007  0.591002  1
  O  O588  1  0.870401  0.200012  0.713475  1
  O  O589  1  0.938942  0.909221  0.624614  1
  O  O590  1  0.938964  0.655531  0.591380  1
  O  O591  1  0.938883  0.253701  0.542615  1
  O  O592  1  0.938911  0.746322  0.591382  1
  O  O593  1  0.938904  0.655510  0.624631  1
  O  O594  1  0.938926  0.090821  0.680216  1
  O  O595  1  0.000000  0.000000  0.664846  1
  O  O596  1  0.000000  0.761809  0.616237  1
  O  O597  1  0.000000  0.138719  0.713474  1
  O  O598  1  0.000000  0.861325  0.628543  1
  O  O599  1  0.736846  0.764548  0.665382  1
  O  O600  1  0.736837  0.235402  0.557398  1
  O  O601  1  0.783746  0.422220  0.595548  1
  O  O602  1  0.000000  0.238239  0.557989  1
  O  O603  1  0.000000  0.722576  0.628541  1
  O  O604  1  0.000000  0.761740  0.664844  1
  O  O605  1  0.618953  0.875071  0.595866  1
  O  O606  1  0.618934  0.548823  0.554797  1
  O  O607  1  0.618845  0.326126  0.550425  1
  O  O608  1  0.618871  0.673889  0.554837  1
  O  O609  1  0.618867  0.548837  0.595873  1
  O  O610  1  0.618940  0.124974  0.672379  1
  O  O611  1  0.381144  0.548952  0.554859  1
  O  O612  1  0.381089  0.326169  0.550455  1
  O  O613  1  0.381187  0.875117  0.595937  1
  O  O614  1  0.381099  0.548932  0.595923  1
  O  O615  1  0.381183  0.124944  0.672426  1
  O  O616  1  0.381113  0.673902  0.554865  1
  O  O617  1  0.499975  0.534275  0.599164  1
  O  O618  1  0.500068  0.094350  0.656920  1
  O  O619  1  0.499991  0.628676  0.542643  1
  O  O620  1  0.500025  0.534295  0.542622  1
  O  O621  1  0.499967  0.371366  0.565923  1
  O  O622  1  0.500074  0.905699  0.599162  1
  O  O623  1  0.414864  0.453298  0.582834  1
  O  O624  1  0.414866  0.453314  0.713502  1
  O  O625  1  0.414844  0.093449  0.640041  1
  O  O626  1  0.585079  0.453246  0.582805  1
  O  O627  1  0.585095  0.453260  0.713463  1
  O  O628  1  0.585082  0.093463  0.639995  1
  O  O629  1  0.415578  0.000000  0.627783  1
  O  O630  1  0.415478  0.419953  0.595101  1
  O  O631  1  0.415513  0.580110  0.542077  1
  O  O632  1  0.584510  0.580078  0.542051  1
  O  O633  1  0.584577  0.000000  0.627728  1
  O  O634  1  0.584473  0.419930  0.595083  1
  O  O635  1  0.584464  0.580040  0.627749  1
  O  O636  1  0.415482  0.580088  0.627783  1
  O  O637  1  0.257984  0.733810  0.631995  1
  O  O638  1  0.257972  0.133136  0.713499  1
  O  O639  1  0.257990  0.866932  0.631996  1
  O  O640  1  0.296781  0.644221  0.619977  1
  O  O641  1  0.296827  0.102416  0.682676  1
  O  O642  1  0.296790  0.746627  0.589153  1
  O  O643  1  0.296826  0.644248  0.589159  1
  O  O644  1  0.296766  0.253438  0.540208  1
  O  O645  1  0.296833  0.897647  0.619980  1
  O  O646  1  0.263097  0.764640  0.665458  1
  O  O647  1  0.263166  0.000000  0.665460  1
  O  O648  1  0.263171  0.764676  0.617421  1
  O  O649  1  0.182370  0.679793  0.630567  1
  O  O650  1  0.182404  0.086078  0.683267  1
  O  O651  1  0.182387  0.765893  0.600355  1
  O  O652  1  0.182417  0.679840  0.600351  1
  O  O653  1  0.182357  0.234173  0.539609  1
  O  O654  1  0.182412  0.913980  0.630577  1
  O  O655  1  0.263723  0.527983  0.546284  1
  O  O656  1  0.263670  0.347179  0.554742  1
  O  O657  1  0.263760  0.875163  0.591657  1
  O  O658  1  0.263685  0.527943  0.591648  1
  O  O659  1  0.263756  0.124897  0.668119  1
  O  O660  1  0.263693  0.652878  0.546282  1
  O  O661  1  0.312007  0.545514  0.574340  1
  O  O662  1  0.312036  0.227265  0.713494  1
  O  O663  1  0.312045  0.772796  0.574346  1
  O  O664  1  0.149439  0.563411  0.603141  1
  O  O665  1  0.149495  0.104043  0.666849  1
  O  O666  1  0.149453  0.667471  0.556512  1
  O  O667  1  0.149477  0.563490  0.556510  1
  O  O668  1  0.149426  0.332587  0.556031  1
  O  O669  1  0.149502  0.896011  0.603156  1
  O  O670  1  0.216258  0.000000  0.627327  1
  O  O671  1  0.216216  0.422180  0.595545  1
  O  O672  1  0.216259  0.577868  0.541155  1
  O  O673  1  0.190305  0.452620  0.582416  1
  O  O674  1  0.190315  0.452682  0.509395  1
  O  O675  1  0.190285  0.094790  0.640461  1
  O  O676  1  0.129600  0.600097  0.591045  1
  O  O677  1  0.129597  0.199983  0.713497  1
  O  O678  1  0.129620  0.800069  0.591054  1
  O  O679  1  0.061117  0.655637  0.591418  1
  O  O680  1  0.061043  0.253682  0.542620  1
  O  O681  1  0.061104  0.909272  0.624661  1
  O  O682  1  0.061063  0.655525  0.624641  1
  O  O683  1  0.061092  0.090773  0.680230  1
  O  O684  1  0.061070  0.746376  0.591417  1
  O  O685  1  0.263121  0.235392  0.557424  1
  O  O686  1  0.216180  0.577826  0.627318  1
  O  O687  1  0.742000  0.266305  0.590877  1
  O  O688  1  0.742000  0.866857  0.713417  1
  O  O689  1  0.741997  0.133091  0.590807  1
  O  O690  1  0.703203  0.355883  0.602894  1
  O  O691  1  0.703072  0.897699  0.540148  1
  O  O692  1  0.703124  0.253356  0.633648  1
  O  O693  1  0.703157  0.355846  0.633709  1
  O  O694  1  0.703184  0.746584  0.682617  1
  O  O695  1  0.703062  0.102273  0.602779  1
  O  O696  1  0.736806  0.000000  0.557321  1
  O  O697  1  0.736824  0.235395  0.605419  1
  O  O698  1  0.817605  0.320276  0.592292  1
  O  O699  1  0.817494  0.913989  0.539557  1
  O  O700  1  0.817546  0.234163  0.622487  1
  O  O701  1  0.817564  0.320283  0.622524  1
  O  O702  1  0.817590  0.765827  0.683217  1
  O  O703  1  0.817486  0.086003  0.592222  1
  O  O704  1  0.736248  0.472093  0.676594  1
  O  O705  1  0.736271  0.652870  0.668103  1
  O  O706  1  0.736082  0.124827  0.631129  1
  O  O707  1  0.736306  0.472168  0.631239  1
  O  O708  1  0.736103  0.875196  0.554702  1
  O  O709  1  0.736187  0.347046  0.676518  1
  O  O710  1  0.687991  0.454589  0.648543  1
  O  O711  1  0.687888  0.772839  0.713463  1
  O  O712  1  0.687811  0.227125  0.648425  1
  O  O713  1  0.850551  0.436657  0.619723  1
  O  O714  1  0.850365  0.896103  0.556012  1
  O  O715  1  0.850445  0.332535  0.666334  1
  O  O716  1  0.850497  0.436610  0.666366  1
  O  O717  1  0.850514  0.667472  0.666827  1
  O  O718  1  0.850347  0.103938  0.619645  1
  O  O719  1  0.783556  0.000000  0.595511  1
  O  O720  1  0.000000  0.277460  0.594314  1
  O  O721  1  0.783700  0.422159  0.681702  1
  O  O722  1  0.809659  0.547447  0.640448  1
  O  O723  1  0.809637  0.547382  0.713479  1
  O  O724  1  0.809704  0.905353  0.582412  1
  O  O725  1  0.870385  0.399997  0.631824  1
  O  O726  1  0.870280  0.800113  0.713480  1
  O  O727  1  0.870237  0.199906  0.631764  1
  O  O728  1  0.938861  0.344485  0.631461  1
  O  O729  1  0.938892  0.746349  0.680231  1
  O  O730  1  0.938770  0.090734  0.598160  1
  O  O731  1  0.938911  0.344500  0.598208  1
  O  O732  1  0.938784  0.909303  0.542610  1
  O  O733  1  0.938843  0.253683  0.631444  1
  O  O734  1  0.000000  0.238294  0.606637  1
  O  O735  1  0.000000  0.138751  0.594310  1
  O  O736  1  0.618828  0.451145  0.668019  1
  O  O737  1  0.618852  0.673867  0.672389  1
  O  O738  1  0.618697  0.124825  0.626838  1
  O  O739  1  0.618877  0.451162  0.626963  1
  O  O740  1  0.618716  0.875138  0.550395  1
  O  O741  1  0.618789  0.326107  0.667958  1
  O  O742  1  0.380960  0.124962  0.626959  1
  O  O743  1  0.381047  0.451143  0.668040  1
  O  O744  1  0.381077  0.673878  0.672431  1
  O  O745  1  0.381044  0.326185  0.668031  1
  O  O746  1  0.381093  0.451113  0.626964  1
  O  O747  1  0.380965  0.875058  0.550448  1
  O  O748  1  0.499932  0.371391  0.680226  1
  O  O749  1  0.499982  0.465733  0.623695  1
  O  O750  1  0.499855  0.905661  0.565893  1
  O  O751  1  0.499846  0.094335  0.623659  1
  O  O752  1  0.499931  0.465772  0.680245  1
  O  O753  1  0.499972  0.628651  0.656939  1
  O  O754  1  0.414868  0.546749  0.640053  1
  O  O755  1  0.414853  0.546773  0.509392  1
  O  O756  1  0.414855  0.906587  0.582831  1
  O  O757  1  0.585085  0.546741  0.640032  1
  O  O758  1  0.585069  0.546775  0.713495  1
  O  O759  1  0.585088  0.906549  0.582769  1
  O  O760  1  0.415440  0.419980  0.680818  1
  O  O761  1  0.415357  0.000000  0.595087  1
  O  O762  1  0.584323  0.000000  0.595037  1
  O  O763  1  0.584415  0.419979  0.680796  1
  O  O764  1  0.257831  0.133156  0.590902  1
  O  O765  1  0.257923  0.266256  0.590899  1
  O  O766  1  0.257868  0.866902  0.713503  1
  O  O767  1  0.296710  0.253425  0.633733  1
  O  O768  1  0.296773  0.355815  0.602907  1
  O  O769  1  0.296659  0.897625  0.540211  1
  O  O770  1  0.296648  0.102426  0.602914  1
  O  O771  1  0.296731  0.355839  0.633740  1
  O  O772  1  0.296747  0.746617  0.682681  1
  O  O773  1  0.263041  0.235418  0.605480  1
  O  O774  1  0.262991  0.000000  0.557430  1
  O  O775  1  0.182288  0.234231  0.622562  1
  O  O776  1  0.182360  0.320228  0.592304  1
  O  O777  1  0.182250  0.913944  0.539609  1
  O  O778  1  0.182234  0.086099  0.592319  1
  O  O779  1  0.182317  0.320278  0.622551  1
  O  O780  1  0.182330  0.765823  0.683263  1
  O  O781  1  0.263550  0.124929  0.631237  1
  O  O782  1  0.263635  0.472113  0.676615  1
  O  O783  1  0.263660  0.652804  0.668113  1
  O  O784  1  0.263633  0.347237  0.676614  1
  O  O785  1  0.263673  0.472072  0.631223  1
  O  O786  1  0.263551  0.875114  0.554752  1
  O  O787  1  0.311897  0.227310  0.648555  1
  O  O788  1  0.311946  0.454549  0.648548  1
  O  O789  1  0.311900  0.772732  0.713495  1
  O  O790  1  0.149371  0.332642  0.666403  1
  O  O791  1  0.149425  0.436577  0.619711  1
  O  O792  1  0.149310  0.896001  0.556037  1
  O  O793  1  0.149305  0.104039  0.619734  1
  O  O794  1  0.149388  0.436658  0.666394  1
  O  O795  1  0.149401  0.667410  0.666838  1
  O  O796  1  0.216141  0.422222  0.681737  1
  O  O797  1  0.216094  -0.000000  0.595555  1
  O  O798  1  0.190300  0.547374  0.640445  1
  O  O799  1  0.190295  0.547442  0.509392  1
  O  O800  1  0.190281  0.905261  0.582432  1
  O  O801  1  0.129472  0.200026  0.631850  1
  O  O802  1  0.129547  0.399976  0.631832  1
  O  O803  1  0.129493  0.800019  0.713494  1
  O  O804  1  0.060937  0.090828  0.598230  1
  O  O805  1  0.061016  0.344535  0.631482  1
  O  O806  1  0.061043  0.746287  0.680225  1
  O  O807  1  0.061002  0.253770  0.631491  1
  O  O808  1  0.061062  0.344438  0.598195  1
  O  O809  1  0.060951  0.909216  0.542623  1
  O  O810  1  0.000000  0.861295  0.713478  1
  O  O811  1  0.000000  0.000000  0.557988  1
  O  O812  1  0.190315  0.452682  0.713515  1
  O  O813  1  0.414853  0.546773  0.713512  1
  O  O814  1  0.190295  0.547442  0.713512  1
  Si  Si815  1  0.748154  0.787494  0.202572  1
  Si  Si816  1  0.748150  0.709487  0.230012  1
  Si  Si817  1  0.748153  0.077901  0.277730  1
  Si  Si818  1  0.748173  0.922118  0.230034  1
  Si  Si819  1  0.748174  0.709526  0.202540  1
  Si  Si820  1  0.748125  0.212505  0.128585  1
  Si  Si821  1  0.684782  0.852029  0.186008  1
  Si  Si822  1  0.684792  0.563916  0.157414  1
  Si  Si823  1  0.684705  0.288034  0.129703  1
  Si  Si824  1  0.684728  0.711987  0.157444  1
  Si  Si825  1  0.684719  0.563926  0.186012  1
  Si  Si826  1  0.684766  0.148007  0.276631  1
  Si  Si827  1  0.796382  0.610502  0.129560  1
  Si  Si828  1  0.796386  0.528809  0.192386  1
  Si  Si829  1  0.796431  0.081660  0.242373  1
  Si  Si830  1  0.796441  0.918397  0.192387  1
  Si  Si831  1  0.796467  0.528823  0.129544  1
  Si  Si832  1  0.796356  0.389522  0.163967  1
  Si  Si833  1  0.872150  0.880300  0.203810  1
  Si  Si834  1  0.872166  0.622904  0.175720  1
  Si  Si835  1  0.872094  0.257386  0.129219  1
  Si  Si836  1  0.872127  0.742634  0.175726  1
  Si  Si837  1  0.872123  0.622860  0.203813  1
  Si  Si838  1  0.872131  0.119739  0.277123  1
  Si  Si839  1  0.000000  0.700923  0.227872  1
  Si  Si840  1  0.000000  0.079976  0.276833  1
  Si  Si841  1  0.000000  0.780943  0.199488  1
  Si  Si842  1  0.000000  0.219098  0.129522  1
  Si  Si843  1  0.000000  0.920070  0.227875  1
  Si  Si844  1  0.427237  0.529565  0.192712  1
  Si  Si845  1  0.427303  0.080949  0.242264  1
  Si  Si846  1  0.427247  0.610525  0.129735  1
  Si  Si847  1  0.427268  0.529580  0.129726  1
  Si  Si848  1  0.427227  0.389538  0.164135  1
  Si  Si849  1  0.427310  0.919106  0.192713  1
  Si  Si850  1  0.572737  0.610519  0.129720  1
  Si  Si851  1  0.572728  0.529508  0.192678  1
  Si  Si852  1  0.572798  0.080942  0.242217  1
  Si  Si853  1  0.572805  0.919096  0.192666  1
  Si  Si854  1  0.572761  0.529531  0.129693  1
  Si  Si855  1  0.572717  0.389502  0.164114  1
  Si  Si856  1  0.127889  0.742666  0.175768  1
  Si  Si857  1  0.127902  0.119702  0.277150  1
  Si  Si858  1  0.251827  0.709613  0.230087  1
  Si  Si859  1  0.251862  0.077908  0.277776  1
  Si  Si860  1  0.251851  0.787520  0.202611  1
  Si  Si861  1  0.251875  0.709645  0.202613  1
  Si  Si862  1  0.251820  0.212550  0.128625  1
  Si  Si863  1  0.251869  0.922160  0.230091  1
  Si  Si864  1  0.315287  0.564061  0.157482  1
  Si  Si865  1  0.315247  0.288044  0.129729  1
  Si  Si866  1  0.315321  0.852107  0.186080  1
  Si  Si867  1  0.315250  0.564038  0.186070  1
  Si  Si868  1  0.315319  0.147956  0.276661  1
  Si  Si869  1  0.315266  0.712019  0.157483  1
  Si  Si870  1  0.203576  0.528842  0.192414  1
  Si  Si871  1  0.203640  0.081675  0.242421  1
  Si  Si872  1  0.203603  0.610540  0.129588  1
  Si  Si873  1  0.203628  0.528899  0.129590  1
  Si  Si874  1  0.203578  0.389517  0.163973  1
  Si  Si875  1  0.203641  0.918381  0.192425  1
  Si  Si876  1  0.127904  0.623002  0.175766  1
  Si  Si877  1  0.127860  0.257393  0.129243  1
  Si  Si878  1  0.127915  0.880348  0.203867  1
  Si  Si879  1  0.127876  0.622933  0.203852  1
  Si  Si880  1  0.000000  0.700991  0.199489  1
  Si  Si881  1  -0.000000  0.079972  0.178482  1
  Si  Si882  1  0.000000  0.299103  0.206902  1
  Si  Si883  1  0.000000  0.299059  0.178484  1
  Si  Si884  1  0.872003  0.257356  0.230594  1
  Si  Si885  1  0.000000  0.920070  0.129523  1
  Si  Si886  1  0.871960  0.880409  0.129221  1
  Si  Si887  1  0.871938  0.119614  0.202458  1
  Si  Si888  1  0.872110  0.377125  0.202528  1
  Si  Si889  1  0.748143  0.290469  0.176294  1
  Si  Si890  1  0.748074  0.922133  0.128546  1
  Si  Si891  1  0.748120  0.212506  0.203730  1
  Si  Si892  1  0.748118  0.290479  0.203778  1
  Si  Si893  1  0.748147  0.787442  0.277711  1
  Si  Si894  1  0.748073  0.077835  0.176215  1
  Si  Si895  1  0.684689  0.436038  0.248919  1
  Si  Si896  1  0.684694  0.711997  0.276623  1
  Si  Si897  1  0.684545  0.147803  0.220197  1
  Si  Si898  1  0.684741  0.436064  0.220334  1
  Si  Si899  1  0.684573  0.852170  0.129687  1
  Si  Si900  1  0.684615  0.287944  0.248831  1
  Si  Si901  1  0.796397  0.471233  0.213977  1
  Si  Si902  1  0.796216  0.918392  0.163942  1
  Si  Si903  1  0.796308  0.389472  0.276785  1
  Si  Si904  1  0.796349  0.471159  0.276802  1
  Si  Si905  1  0.796378  0.610526  0.242400  1
  Si  Si906  1  0.796201  0.081651  0.213927  1
  Si  Si907  1  0.872074  0.377121  0.230634  1
  Si  Si908  1  0.872061  0.742661  0.277130  1
  Si  Si909  1  0.000000  0.219146  0.206900  1
  Si  Si910  1  0.000000  0.780901  0.276836  1
  Si  Si911  1  0.572685  0.470515  0.276670  1
  Si  Si912  1  0.572712  0.610481  0.242242  1
  Si  Si913  1  0.572605  0.080913  0.213624  1
  Si  Si914  1  0.427187  0.389555  0.276675  1
  Si  Si915  1  0.427230  0.470476  0.213692  1
  Si  Si916  1  0.427131  0.919087  0.164123  1
  Si  Si917  1  0.427119  0.080931  0.213673  1
  Si  Si918  1  0.427196  0.470502  0.276685  1
  Si  Si919  1  0.427222  0.610507  0.242270  1
  Si  Si920  1  0.572720  0.470476  0.213678  1
  Si  Si921  1  0.572617  0.919068  0.164073  1
  Si  Si922  1  0.572676  0.389528  0.276644  1
  Si  Si923  1  0.127748  0.880304  0.129242  1
  Si  Si924  1  0.127849  0.377071  0.202527  1
  Si  Si925  1  0.251736  0.212574  0.203810  1
  Si  Si926  1  0.251818  0.290420  0.176314  1
  Si  Si927  1  0.251711  0.922138  0.128628  1
  Si  Si928  1  0.251692  0.077907  0.176320  1
  Si  Si929  1  0.251772  0.290449  0.203808  1
  Si  Si930  1  0.251779  0.787479  0.277776  1
  Si  Si931  1  0.315117  0.147996  0.220342  1
  Si  Si932  1  0.315196  0.436025  0.248934  1
  Si  Si933  1  0.315212  0.711969  0.276663  1
  Si  Si934  1  0.315188  0.288078  0.248934  1
  Si  Si935  1  0.315235  0.436001  0.220333  1
  Si  Si936  1  0.315120  0.852045  0.129731  1
  Si  Si937  1  0.203534  0.389573  0.276834  1
  Si  Si938  1  0.203583  0.471154  0.213967  1
  Si  Si939  1  0.203469  0.918377  0.163986  1
  Si  Si940  1  0.203470  0.081667  0.213981  1
  Si  Si941  1  0.203532  0.471215  0.276832  1
  Si  Si942  1  0.203558  0.610478  0.242409  1
  Si  Si943  1  0.127735  0.119739  0.202553  1
  Si  Si944  1  0.127823  0.377141  0.230656  1
  Si  Si945  1  0.127820  0.742601  0.277146  1
  Si  Si946  1  0.127784  0.257453  0.230667  1
  Si  Si947  1  0.748154  0.787494  0.406692  1
  Si  Si948  1  0.748150  0.709487  0.434132  1
  Si  Si949  1  0.748153  0.077901  0.481850  1
  Si  Si950  1  0.748173  0.922118  0.434154  1
  Si  Si951  1  0.748174  0.709526  0.406660  1
  Si  Si952  1  0.748125  0.212505  0.332705  1
  Si  Si953  1  0.684782  0.852029  0.390128  1
  Si  Si954  1  0.684792  0.563916  0.361534  1
  Si  Si955  1  0.684705  0.288034  0.333823  1
  Si  Si956  1  0.684728  0.711987  0.361563  1
  Si  Si957  1  0.684719  0.563926  0.390132  1
  Si  Si958  1  0.684766  0.148007  0.480750  1
  Si  Si959  1  0.796382  0.610502  0.333679  1
  Si  Si960  1  0.796386  0.528809  0.396506  1
  Si  Si961  1  0.796431  0.081660  0.446493  1
  Si  Si962  1  0.796441  0.918397  0.396507  1
  Si  Si963  1  0.796467  0.528823  0.333664  1
  Si  Si964  1  0.796356  0.389522  0.368087  1
  Si  Si965  1  0.872150  0.880300  0.407930  1
  Si  Si966  1  0.872166  0.622904  0.379840  1
  Si  Si967  1  0.872094  0.257386  0.333338  1
  Si  Si968  1  0.872127  0.742634  0.379845  1
  Si  Si969  1  0.872123  0.622860  0.407933  1
  Si  Si970  1  0.872131  0.119739  0.481242  1
  Si  Si971  1  0.000000  0.700923  0.431992  1
  Si  Si972  1  0.000000  0.079976  0.480953  1
  Si  Si973  1  -0.000000  0.780943  0.403608  1
  Si  Si974  1  0.000000  0.219098  0.333642  1
  Si  Si975  1  0.000000  0.920070  0.431994  1
  Si  Si976  1  0.427237  0.529565  0.396832  1
  Si  Si977  1  0.427303  0.080949  0.446384  1
  Si  Si978  1  0.427247  0.610525  0.333855  1
  Si  Si979  1  0.427268  0.529580  0.333846  1
  Si  Si980  1  0.427227  0.389538  0.368255  1
  Si  Si981  1  0.427310  0.919106  0.396833  1
  Si  Si982  1  0.572737  0.610519  0.333840  1
  Si  Si983  1  0.572728  0.529508  0.396798  1
  Si  Si984  1  0.572798  0.080942  0.446337  1
  Si  Si985  1  0.572805  0.919096  0.396786  1
  Si  Si986  1  0.572761  0.529531  0.333813  1
  Si  Si987  1  0.572717  0.389502  0.368234  1
  Si  Si988  1  0.127889  0.742666  0.379888  1
  Si  Si989  1  0.127902  0.119702  0.481270  1
  Si  Si990  1  0.251827  0.709613  0.434207  1
  Si  Si991  1  0.251862  0.077908  0.481896  1
  Si  Si992  1  0.251851  0.787520  0.406731  1
  Si  Si993  1  0.251875  0.709645  0.406733  1
  Si  Si994  1  0.251820  0.212550  0.332745  1
  Si  Si995  1  0.251869  0.922160  0.434211  1
  Si  Si996  1  0.315287  0.564061  0.361602  1
  Si  Si997  1  0.315247  0.288044  0.333849  1
  Si  Si998  1  0.315321  0.852107  0.390200  1
  Si  Si999  1  0.315250  0.564038  0.390189  1
  Si  Si1000  1  0.315319  0.147956  0.480781  1
  Si  Si1001  1  0.315266  0.712019  0.361603  1
  Si  Si1002  1  0.203576  0.528842  0.396533  1
  Si  Si1003  1  0.203640  0.081675  0.446541  1
  Si  Si1004  1  0.203603  0.610540  0.333708  1
  Si  Si1005  1  0.203628  0.528899  0.333710  1
  Si  Si1006  1  0.203578  0.389517  0.368092  1
  Si  Si1007  1  0.203641  0.918381  0.396545  1
  Si  Si1008  1  0.127904  0.623002  0.379886  1
  Si  Si1009  1  0.127860  0.257393  0.333363  1
  Si  Si1010  1  0.127915  0.880348  0.407987  1
  Si  Si1011  1  0.127876  0.622933  0.407972  1
  Si  Si1012  1  0.000000  0.700991  0.403608  1
  Si  Si1013  1  0.000000  0.079972  0.382602  1
  Si  Si1014  1  0.000000  0.299103  0.411022  1
  Si  Si1015  1  0.000000  0.299059  0.382604  1
  Si  Si1016  1  0.872003  0.257356  0.434714  1
  Si  Si1017  1  0.000000  0.920070  0.333643  1
  Si  Si1018  1  0.871960  0.880409  0.333341  1
  Si  Si1019  1  0.871938  0.119614  0.406578  1
  Si  Si1020  1  0.872110  0.377125  0.406648  1
  Si  Si1021  1  0.748143  0.290469  0.380414  1
  Si  Si1022  1  0.748074  0.922133  0.332666  1
  Si  Si1023  1  0.748120  0.212506  0.407850  1
  Si  Si1024  1  0.748118  0.290479  0.407898  1
  Si  Si1025  1  0.748147  0.787442  0.481831  1
  Si  Si1026  1  0.748073  0.077835  0.380335  1
  Si  Si1027  1  0.684689  0.436038  0.453039  1
  Si  Si1028  1  0.684694  0.711997  0.480743  1
  Si  Si1029  1  0.684545  0.147803  0.424316  1
  Si  Si1030  1  0.684741  0.436064  0.424453  1
  Si  Si1031  1  0.684573  0.852170  0.333807  1
  Si  Si1032  1  0.684615  0.287944  0.452951  1
  Si  Si1033  1  0.796397  0.471233  0.418097  1
  Si  Si1034  1  0.796216  0.918392  0.368062  1
  Si  Si1035  1  0.796308  0.389472  0.480904  1
  Si  Si1036  1  0.796349  0.471159  0.480922  1
  Si  Si1037  1  0.796378  0.610526  0.446520  1
  Si  Si1038  1  0.796201  0.081651  0.418047  1
  Si  Si1039  1  0.872074  0.377121  0.434754  1
  Si  Si1040  1  0.872061  0.742661  0.481250  1
  Si  Si1041  1  0.000000  0.219146  0.411020  1
  Si  Si1042  1  0.000000  0.780901  0.480956  1
  Si  Si1043  1  0.572685  0.470515  0.480790  1
  Si  Si1044  1  0.572712  0.610481  0.446362  1
  Si  Si1045  1  0.572605  0.080913  0.417744  1
  Si  Si1046  1  0.427187  0.389555  0.480795  1
  Si  Si1047  1  0.427230  0.470476  0.417812  1
  Si  Si1048  1  0.427131  0.919087  0.368242  1
  Si  Si1049  1  0.427119  0.080931  0.417793  1
  Si  Si1050  1  0.427196  0.470502  0.480805  1
  Si  Si1051  1  0.427222  0.610507  0.446390  1
  Si  Si1052  1  0.572720  0.470476  0.417798  1
  Si  Si1053  1  0.572617  0.919068  0.368193  1
  Si  Si1054  1  0.572676  0.389528  0.480764  1
  Si  Si1055  1  0.127748  0.880304  0.333362  1
  Si  Si1056  1  0.127849  0.377071  0.406647  1
  Si  Si1057  1  0.251736  0.212574  0.407930  1
  Si  Si1058  1  0.251818  0.290420  0.380434  1
  Si  Si1059  1  0.251711  0.922138  0.332748  1
  Si  Si1060  1  0.251692  0.077907  0.380439  1
  Si  Si1061  1  0.251772  0.290449  0.407928  1
  Si  Si1062  1  0.251779  0.787479  0.481896  1
  Si  Si1063  1  0.315117  0.147996  0.424462  1
  Si  Si1064  1  0.315196  0.436025  0.453054  1
  Si  Si1065  1  0.315212  0.711969  0.480783  1
  Si  Si1066  1  0.315188  0.288078  0.453054  1
  Si  Si1067  1  0.315235  0.436001  0.424453  1
  Si  Si1068  1  0.315120  0.852045  0.333851  1
  Si  Si1069  1  0.203534  0.389573  0.480954  1
  Si  Si1070  1  0.203583  0.471154  0.418087  1
  Si  Si1071  1  0.203469  0.918377  0.368106  1
  Si  Si1072  1  0.203470  0.081667  0.418101  1
  Si  Si1073  1  0.203532  0.471215  0.480952  1
  Si  Si1074  1  0.203558  0.610478  0.446529  1
  Si  Si1075  1  0.127735  0.119739  0.406673  1
  Si  Si1076  1  0.127823  0.377141  0.434776  1
  Si  Si1077  1  0.127820  0.742601  0.481266  1
  Si  Si1078  1  0.127784  0.257453  0.434787  1
  Si  Si1079  1  0.748154  0.787494  0.610812  1
  Si  Si1080  1  0.748150  0.709487  0.638252  1
  Si  Si1081  1  0.748153  0.077901  0.685970  1
  Si  Si1082  1  0.748173  0.922118  0.638273  1
  Si  Si1083  1  0.748174  0.709526  0.610780  1
  Si  Si1084  1  0.748125  0.212505  0.536824  1
  Si  Si1085  1  0.684782  0.852029  0.594248  1
  Si  Si1086  1  0.684792  0.563916  0.565654  1
  Si  Si1087  1  0.684705  0.288034  0.537942  1
  Si  Si1088  1  0.684728  0.711987  0.565683  1
  Si  Si1089  1  0.684719  0.563926  0.594252  1
  Si  Si1090  1  0.684766  0.148007  0.684870  1
  Si  Si1091  1  0.796382  0.610502  0.537799  1
  Si  Si1092  1  0.796386  0.528809  0.600626  1
  Si  Si1093  1  0.796431  0.081660  0.650613  1
  Si  Si1094  1  0.796441  0.918397  0.600626  1
  Si  Si1095  1  0.796467  0.528823  0.537783  1
  Si  Si1096  1  0.796356  0.389522  0.572206  1
  Si  Si1097  1  0.872150  0.880300  0.612050  1
  Si  Si1098  1  0.872166  0.622904  0.583960  1
  Si  Si1099  1  0.872094  0.257386  0.537458  1
  Si  Si1100  1  0.872127  0.742634  0.583965  1
  Si  Si1101  1  0.872123  0.622860  0.612053  1
  Si  Si1102  1  0.872131  0.119739  0.685362  1
  Si  Si1103  1  0.000000  0.700923  0.636112  1
  Si  Si1104  1  0.000000  0.079976  0.685073  1
  Si  Si1105  1  0.000000  0.780943  0.607728  1
  Si  Si1106  1  0.000000  0.219098  0.537762  1
  Si  Si1107  1  0.000000  0.920070  0.636114  1
  Si  Si1108  1  0.427237  0.529565  0.600952  1
  Si  Si1109  1  0.427303  0.080949  0.650504  1
  Si  Si1110  1  0.427247  0.610525  0.537975  1
  Si  Si1111  1  0.427268  0.529580  0.537965  1
  Si  Si1112  1  0.427227  0.389538  0.572374  1
  Si  Si1113  1  0.427310  0.919106  0.600953  1
  Si  Si1114  1  0.572737  0.610519  0.537960  1
  Si  Si1115  1  0.572728  0.529508  0.600917  1
  Si  Si1116  1  0.572798  0.080942  0.650457  1
  Si  Si1117  1  0.572805  0.919096  0.600906  1
  Si  Si1118  1  0.572761  0.529531  0.537933  1
  Si  Si1119  1  0.572717  0.389502  0.572354  1
  Si  Si1120  1  0.127889  0.742666  0.584008  1
  Si  Si1121  1  0.127902  0.119702  0.685390  1
  Si  Si1122  1  0.251827  0.709613  0.638327  1
  Si  Si1123  1  0.251862  0.077908  0.686016  1
  Si  Si1124  1  0.251851  0.787520  0.610851  1
  Si  Si1125  1  0.251875  0.709645  0.610852  1
  Si  Si1126  1  0.251820  0.212550  0.536865  1
  Si  Si1127  1  0.251869  0.922160  0.638331  1
  Si  Si1128  1  0.315287  0.564061  0.565722  1
  Si  Si1129  1  0.315247  0.288044  0.537969  1
  Si  Si1130  1  0.315321  0.852107  0.594320  1
  Si  Si1131  1  0.315250  0.564038  0.594309  1
  Si  Si1132  1  0.315319  0.147956  0.684901  1
  Si  Si1133  1  0.315266  0.712019  0.565723  1
  Si  Si1134  1  0.203576  0.528842  0.600653  1
  Si  Si1135  1  0.203640  0.081675  0.650661  1
  Si  Si1136  1  0.203603  0.610540  0.537828  1
  Si  Si1137  1  0.203628  0.528899  0.537830  1
  Si  Si1138  1  0.203578  0.389517  0.572212  1
  Si  Si1139  1  0.203641  0.918381  0.600665  1
  Si  Si1140  1  0.127904  0.623002  0.584006  1
  Si  Si1141  1  0.127860  0.257393  0.537483  1
  Si  Si1142  1  0.127915  0.880348  0.612107  1
  Si  Si1143  1  0.127876  0.622933  0.612091  1
  Si  Si1144  1  0.000000  0.700991  0.607728  1
  Si  Si1145  1  -0.000000  0.079972  0.586722  1
  Si  Si1146  1  0.000000  0.299103  0.615142  1
  Si  Si1147  1  0.000000  0.299059  0.586724  1
  Si  Si1148  1  0.872003  0.257356  0.638833  1
  Si  Si1149  1  0.000000  0.920070  0.537763  1
  Si  Si1150  1  0.871960  0.880409  0.537461  1
  Si  Si1151  1  0.871938  0.119614  0.610698  1
  Si  Si1152  1  0.872110  0.377125  0.610768  1
  Si  Si1153  1  0.748143  0.290469  0.584533  1
  Si  Si1154  1  0.748074  0.922133  0.536786  1
  Si  Si1155  1  0.748120  0.212506  0.611970  1
  Si  Si1156  1  0.748118  0.290479  0.612018  1
  Si  Si1157  1  0.748147  0.787442  0.685951  1
  Si  Si1158  1  0.748073  0.077835  0.584454  1
  Si  Si1159  1  0.684689  0.436038  0.657158  1
  Si  Si1160  1  0.684694  0.711997  0.684862  1
  Si  Si1161  1  0.684545  0.147803  0.628436  1
  Si  Si1162  1  0.684741  0.436064  0.628573  1
  Si  Si1163  1  0.684573  0.852170  0.537927  1
  Si  Si1164  1  0.684615  0.287944  0.657071  1
  Si  Si1165  1  0.796397  0.471233  0.622217  1
  Si  Si1166  1  0.796216  0.918392  0.572181  1
  Si  Si1167  1  0.796308  0.389472  0.685024  1
  Si  Si1168  1  0.796349  0.471159  0.685042  1
  Si  Si1169  1  0.796378  0.610526  0.650639  1
  Si  Si1170  1  0.796201  0.081651  0.622167  1
  Si  Si1171  1  0.872074  0.377121  0.638873  1
  Si  Si1172  1  0.872061  0.742661  0.685369  1
  Si  Si1173  1  0.000000  0.219146  0.615140  1
  Si  Si1174  1  0.000000  0.780901  0.685076  1
  Si  Si1175  1  0.572685  0.470515  0.684910  1
  Si  Si1176  1  0.572712  0.610481  0.650482  1
  Si  Si1177  1  0.572605  0.080913  0.621864  1
  Si  Si1178  1  0.427187  0.389555  0.684915  1
  Si  Si1179  1  0.427230  0.470476  0.621931  1
  Si  Si1180  1  0.427131  0.919087  0.572362  1
  Si  Si1181  1  0.427119  0.080931  0.621913  1
  Si  Si1182  1  0.427196  0.470502  0.684925  1
  Si  Si1183  1  0.427222  0.610507  0.650510  1
  Si  Si1184  1  0.572720  0.470476  0.621918  1
  Si  Si1185  1  0.572617  0.919068  0.572313  1
  Si  Si1186  1  0.572676  0.389528  0.684883  1
  Si  Si1187  1  0.127748  0.880304  0.537482  1
  Si  Si1188  1  0.127849  0.377071  0.610766  1
  Si  Si1189  1  0.251736  0.212574  0.612050  1
  Si  Si1190  1  0.251818  0.290420  0.584554  1
  Si  Si1191  1  0.251711  0.922138  0.536868  1
  Si  Si1192  1  0.251692  0.077907  0.584559  1
  Si  Si1193  1  0.251772  0.290449  0.612048  1
  Si  Si1194  1  0.251779  0.787479  0.686016  1
  Si  Si1195  1  0.315117  0.147996  0.628582  1
  Si  Si1196  1  0.315196  0.436025  0.657174  1
  Si  Si1197  1  0.315212  0.711969  0.684903  1
  Si  Si1198  1  0.315188  0.288078  0.657174  1
  Si  Si1199  1  0.315235  0.436001  0.628573  1
  Si  Si1200  1  0.315120  0.852045  0.537970  1
  Si  Si1201  1  0.203534  0.389573  0.685074  1
  Si  Si1202  1  0.203583  0.471154  0.622207  1
  Si  Si1203  1  0.203469  0.918377  0.572226  1
  Si  Si1204  1  0.203470  0.081667  0.622221  1
  Si  Si1205  1  0.203532  0.471215  0.685072  1
  Si  Si1206  1  0.203558  0.610478  0.650649  1
  Si  Si1207  1  0.127735  0.119739  0.610792  1
  Si  Si1208  1  0.127823  0.377141  0.638895  1
  Si  Si1209  1  0.127820  0.742601  0.685386  1
  Si  Si1210  1  0.127784  0.257453  0.638907  1
  H  H1211  1  0.742006  0.133087  0.092744  1
  H  H1212  1  0.687985  0.227305  0.092768  1
  H  H1213  1  0.809786  0.452640  0.092765  1
  H  H1214  1  0.870401  0.200012  0.092771  1
  H  H1215  1  0.000000  0.138719  0.092770  1
  H  H1216  1  0.414866  0.453314  0.092798  1
  H  H1217  1  0.585095  0.453260  0.092759  1
  H  H1218  1  0.257972  0.133136  0.092795  1
  H  H1219  1  0.312036  0.227265  0.092790  1
  H  H1220  1  0.129597  0.199983  0.092793  1
  H  H1221  1  0.742000  0.866857  0.092713  1
  H  H1222  1  0.687888  0.772839  0.092759  1
  H  H1223  1  0.809637  0.547382  0.092775  1
  H  H1224  1  0.870280  0.800113  0.092777  1
  H  H1225  1  0.585069  0.546775  0.092791  1
  H  H1226  1  0.257868  0.866902  0.092799  1
  H  H1227  1  0.311900  0.772732  0.092791  1
  H  H1228  1  0.129493  0.800019  0.092790  1
  H  H1229  1  -0.000000  0.861295  0.092774  1
  H  H1230  1  0.190315  0.452682  0.092811  1
  H  H1231  1  0.414853  0.546773  0.092808  1
  H  H1232  1  0.190295  0.547442  0.092808  1
  H  H1233  1  0.742006  0.133087  0.721792  1
  H  H1234  1  0.687985  0.227305  0.721816  1
  H  H1235  1  0.809786  0.452640  0.721813  1
  H  H1236  1  0.870401  0.200012  0.721820  1
  H  H1237  1  0.000000  0.138719  0.721819  1
  H  H1238  1  0.414866  0.453314  0.721846  1
  H  H1239  1  0.585095  0.453260  0.721808  1
  H  H1240  1  0.257972  0.133136  0.721843  1
  H  H1241  1  0.312036  0.227265  0.721838  1
  H  H1242  1  0.129597  0.199983  0.721841  1
  H  H1243  1  0.742000  0.866857  0.721762  1
  H  H1244  1  0.687888  0.772839  0.721807  1
  H  H1245  1  0.809637  0.547382  0.721823  1
  H  H1246  1  0.870280  0.800113  0.721825  1
  H  H1247  1  0.585069  0.546775  0.721839  1
  H  H1248  1  0.257868  0.866902  0.721847  1
  H  H1249  1  0.311900  0.772732  0.721839  1
  H  H1250  1  0.129493  0.800019  0.721838  1
  H  H1251  1  0.000000  0.861295  0.721822  1
  H  H1252  1  0.190315  0.452682  0.721860  1
  H  H1253  1  0.414853  0.546773  0.721857  1
  H  H1254  1  0.190295  0.547442  0.721856  1
