# generated using pymatgen
data_Si73(H4O75)2
_symmetry_space_group_name_H-M   'P 1'
_cell_length_a   13.77465444
_cell_length_b   35.19864774
_cell_length_c   57.23887505
_cell_angle_alpha   90.00000000
_cell_angle_beta   90.00000000
_cell_angle_gamma   90.00000000
_symmetry_Int_Tables_number   1
_chemical_formula_structural   Si73(H4O75)2
_chemical_formula_sum   'Si292 H32 O600'
_cell_volume   27752.2233113
_cell_formula_units_Z   4
loop_
 _symmetry_equiv_pos_site_id
 _symmetry_equiv_pos_as_xyz
  1  'x, y, z'
loop_
 _atom_site_type_symbol
 _atom_site_label
 _atom_site_symmetry_multiplicity
 _atom_site_fract_x
 _atom_site_fract_y
 _atom_site_fract_z
 _atom_site_occupancy
  O  O1  1  0.337601  0.924575  0.103123  1
  O  O2  1  0.663136  0.924365  0.103197  1
  O  O3  1  0.343161  0.802490  0.103110  1
  O  O4  1  0.655776  0.802126  0.103077  1
  O  O5  1  0.499731  0.813624  0.125549  1
  O  O6  1  0.399757  0.000000  0.246357  1
  O  O7  1  0.600435  0.000000  0.246354  1
  O  O8  1  0.100435  -0.000000  0.196127  1
  O  O9  1  0.497566  0.250324  0.221021  1
  O  O10  1  0.996790  0.250151  0.221325  1
  O  O11  1  0.251073  0.108936  0.260832  1
  O  O12  1  0.249325  0.108955  0.181683  1
  O  O13  1  0.749296  0.108918  0.260834  1
  O  O14  1  0.751218  0.108879  0.181682  1
  O  O15  1  0.162952  0.075254  0.294478  1
  O  O16  1  0.337336  0.075175  0.148032  1
  O  O17  1  0.837338  0.075443  0.294607  1
  O  O18  1  0.662895  0.075557  0.147915  1
  O  O19  1  0.246201  0.036237  0.259807  1
  O  O20  1  0.254154  0.036247  0.182746  1
  O  O21  1  0.753472  0.036084  0.260345  1
  O  O22  1  0.746693  0.036064  0.182129  1
  O  O23  1  0.093211  0.074844  0.254923  1
  O  O24  1  0.407149  0.074875  0.187569  1
  O  O25  1  0.906745  0.074498  0.255012  1
  O  O26  1  0.593603  0.074576  0.187532  1
  O  O27  1  0.257024  0.181971  0.185506  1
  O  O28  1  0.257383  0.317953  0.257040  1
  O  O29  1  0.243203  0.181929  0.257075  1
  O  O30  1  0.242885  0.318036  0.185409  1
  O  O31  1  0.742824  0.317991  0.257173  1
  O  O32  1  0.742882  0.181858  0.185356  1
  O  O33  1  0.757345  0.317942  0.185415  1
  O  O34  1  0.757434  0.181938  0.257064  1
  O  O35  1  0.250146  0.140050  0.221273  1
  O  O36  1  0.750099  0.140102  0.221242  1
  O  O37  1  0.099497  0.147383  0.196655  1
  O  O38  1  0.400814  0.147443  0.245872  1
  O  O39  1  0.900601  0.147572  0.196626  1
  O  O40  1  0.599724  0.147516  0.245913  1
  O  O41  1  0.250671  0.249921  0.272633  1
  O  O42  1  0.250738  0.250029  0.169929  1
  O  O43  1  0.750673  0.249880  0.169867  1
  O  O44  1  0.750736  0.249982  0.272665  1
  O  O45  1  0.155739  0.197691  0.294333  1
  O  O46  1  0.155677  0.302127  0.148128  1
  O  O47  1  0.342762  0.197341  0.147940  1
  O  O48  1  0.343520  0.302516  0.294534  1
  O  O49  1  0.842966  0.302469  0.147826  1
  O  O50  1  0.843168  0.197348  0.294639  1
  O  O51  1  0.655538  0.302070  0.294457  1
  O  O52  1  0.656010  0.197730  0.148006  1
  O  O53  1  0.093930  0.222554  0.255483  1
  O  O54  1  0.093821  0.277353  0.187013  1
  O  O55  1  0.407876  0.221764  0.186401  1
  O  O56  1  0.407843  0.277897  0.256023  1
  O  O57  1  0.907936  0.278058  0.186328  1
  O  O58  1  0.908034  0.221855  0.256182  1
  O  O59  1  0.593822  0.277282  0.255561  1
  O  O60  1  0.593700  0.222414  0.186852  1
  O  O61  1  0.127337  0.135945  0.316864  1
  O  O62  1  0.500453  0.321280  0.228765  1
  O  O63  1  0.500445  0.178988  0.213982  1
  O  O64  1  0.899706  0.000000  0.196122  1
  O  O65  1  0.750065  0.001222  0.221233  1
  O  O66  1  0.000000  0.107392  0.223305  1
  O  O67  1  0.500608  0.107402  0.219229  1
  O  O68  1  -0.000000  0.035443  0.225586  1
  O  O69  1  0.499827  0.035413  0.216885  1
  O  O70  1  -0.000000  0.178941  0.228583  1
  O  O71  1  0.000000  0.321233  0.213809  1
  O  O72  1  0.000000  0.084558  0.317013  1
  O  O73  1  0.001645  0.250706  0.412229  1
  O  O74  1  0.497942  0.249504  0.412315  1
  O  O75  1  -0.000000  0.321454  0.420294  1
  O  O76  1  0.751192  0.108933  0.452169  1
  O  O77  1  0.748995  0.108965  0.373143  1
  O  O78  1  0.249275  0.109023  0.452219  1
  O  O79  1  0.251171  0.108936  0.373119  1
  O  O80  1  0.662906  0.075358  0.485806  1
  O  O81  1  0.837467  0.075199  0.339532  1
  O  O82  1  0.337131  0.075142  0.485854  1
  O  O83  1  0.163157  0.075373  0.339427  1
  O  O84  1  0.746221  0.036207  0.451176  1
  O  O85  1  0.754053  0.036232  0.374186  1
  O  O86  1  0.253688  0.036290  0.451154  1
  O  O87  1  0.246027  0.036251  0.374114  1
  O  O88  1  0.593377  0.074839  0.446248  1
  O  O89  1  0.906799  0.074945  0.379103  1
  O  O90  1  0.406860  0.074774  0.446301  1
  O  O91  1  0.093188  0.074942  0.378985  1
  O  O92  1  0.757097  0.181997  0.376809  1
  O  O93  1  0.757355  0.317960  0.448417  1
  O  O94  1  0.742740  0.181938  0.448604  1
  O  O95  1  0.742965  0.318104  0.376738  1
  O  O96  1  0.242675  0.318070  0.448566  1
  O  O97  1  0.242820  0.181905  0.376720  1
  O  O98  1  0.257178  0.318003  0.376868  1
  O  O99  1  0.257326  0.182064  0.448436  1
  O  O100  1  0.750139  0.140293  0.412678  1
  O  O101  1  0.249887  0.140216  0.412642  1
  O  O102  1  0.599509  0.147618  0.388062  1
  O  O103  1  0.900610  0.147677  0.437342  1
  O  O104  1  0.400549  0.147651  0.388049  1
  O  O105  1  0.099579  0.147617  0.437365  1
  O  O106  1  0.750173  0.249984  0.464076  1
  O  O107  1  0.750211  0.250067  0.361296  1
  O  O108  1  0.250219  0.249965  0.361319  1
  O  O109  1  0.250271  0.250067  0.464077  1
  O  O110  1  0.655275  0.197923  0.485881  1
  O  O111  1  0.656135  0.302273  0.339357  1
  O  O112  1  0.844012  0.197706  0.339463  1
  O  O113  1  0.844323  0.302419  0.485764  1
  O  O114  1  0.342982  0.302521  0.339333  1
  O  O115  1  0.343509  0.197519  0.485907  1
  O  O116  1  0.156306  0.302314  0.486029  1
  O  O117  1  0.156948  0.197697  0.339200  1
  O  O118  1  0.593526  0.222600  0.446964  1
  O  O119  1  0.593402  0.277738  0.378190  1
  O  O120  1  0.907010  0.222213  0.378178  1
  O  O121  1  0.906958  0.277430  0.447039  1
  O  O122  1  0.407625  0.278101  0.377822  1
  O  O123  1  0.407507  0.222245  0.447366  1
  O  O124  1  0.093008  0.277656  0.447331  1
  O  O125  1  0.092783  0.221966  0.377840  1
  O  O126  1  -0.000000  0.186193  0.316955  1
  O  O127  1  0.499820  0.313817  0.317013  1
  O  O128  1  0.372766  0.135747  0.508284  1
  O  O129  1  0.873203  0.135867  0.317179  1
  O  O130  1  0.899709  0.000000  0.437729  1
  O  O131  1  0.399701  0.000000  0.387505  1
  O  O132  1  0.499932  0.107159  0.414492  1
  O  O133  1  0.000000  0.107519  0.410746  1
  O  O134  1  0.500066  0.035241  0.417033  1
  O  O135  1  -0.000000  0.035463  0.408305  1
  O  O136  1  0.500086  0.178641  0.420199  1
  O  O137  1  0.500146  0.320932  0.405440  1
  O  O138  1  0.000000  0.179179  0.405489  1
  O  O139  1  0.500057  0.084570  0.508279  1
  O  O140  1  0.626995  0.136072  0.508217  1
  O  O141  1  0.600456  0.000000  0.387499  1
  O  O142  1  0.500068  0.464725  0.225693  1
  O  O143  1  0.000000  0.535415  0.216976  1
  O  O144  1  -0.000000  0.464742  0.216813  1
  O  O145  1  0.500178  0.535353  0.225562  1
  O  O146  1  0.751189  0.608797  0.260767  1
  O  O147  1  0.251302  0.391017  0.181709  1
  O  O148  1  0.749114  0.608816  0.181774  1
  O  O149  1  0.249142  0.390975  0.260847  1
  O  O150  1  0.749215  0.390961  0.181711  1
  O  O151  1  0.249234  0.608834  0.260779  1
  O  O152  1  0.751167  0.390981  0.260808  1
  O  O153  1  0.251148  0.608781  0.181743  1
  O  O154  1  0.662943  0.575627  0.294533  1
  O  O155  1  0.162887  0.424679  0.148077  1
  O  O156  1  0.837358  0.575460  0.148020  1
  O  O157  1  0.337360  0.424786  0.294476  1
  O  O158  1  0.837230  0.424698  0.148043  1
  O  O159  1  0.337359  0.575400  0.294528  1
  O  O160  1  0.663058  0.424623  0.294478  1
  O  O161  1  0.162893  0.575599  0.147976  1
  O  O162  1  0.746724  0.535999  0.260341  1
  O  O163  1  0.246195  0.463720  0.182726  1
  O  O164  1  0.753464  0.535999  0.182241  1
  O  O165  1  0.253997  0.463701  0.259789  1
  O  O166  1  0.754051  0.463681  0.182741  1
  O  O167  1  0.253358  0.536019  0.260297  1
  O  O168  1  0.746293  0.463693  0.259823  1
  O  O169  1  0.246634  0.536005  0.182191  1
  O  O170  1  0.593441  0.574502  0.254954  1
  O  O171  1  0.093420  0.425033  0.187665  1
  O  O172  1  0.906770  0.574483  0.187594  1
  O  O173  1  0.406895  0.425078  0.254903  1
  O  O174  1  0.906978  0.425070  0.187597  1
  O  O175  1  0.406808  0.574432  0.254955  1
  O  O176  1  0.593366  0.425101  0.254913  1
  O  O177  1  0.093365  0.574535  0.187563  1
  O  O178  1  0.750038  0.640150  0.221288  1
  O  O179  1  0.250090  0.359833  0.221259  1
  O  O180  1  0.750136  0.359712  0.221274  1
  O  O181  1  0.249966  0.640100  0.221239  1
  O  O182  1  0.599471  0.647402  0.196675  1
  O  O183  1  0.099577  0.352354  0.245901  1
  O  O184  1  0.900630  0.647488  0.245882  1
  O  O185  1  0.400706  0.352309  0.196661  1
  O  O186  1  0.900614  0.352280  0.245905  1
  O  O187  1  0.400608  0.647426  0.196659  1
  O  O188  1  0.599658  0.352348  0.196629  1
  O  O189  1  0.099498  0.647372  0.245885  1
  O  O190  1  0.500188  0.392791  0.223095  1
  O  O191  1  -0.000000  0.607392  0.219177  1
  O  O192  1  0.600460  0.499871  0.196141  1
  O  O193  1  0.100417  0.499871  0.246370  1
  O  O194  1  0.899749  0.499921  0.246374  1
  O  O195  1  0.399739  0.499921  0.196138  1
  O  O196  1  0.750012  0.500985  0.221286  1
  O  O197  1  0.250086  0.501018  0.221254  1
  O  O198  1  0.500000  0.607289  0.223336  1
  O  O199  1  -0.000000  0.392772  0.219453  1
  O  O200  1  0.627215  0.363953  0.316868  1
  O  O201  1  -0.000000  0.464787  0.417073  1
  O  O202  1  0.251151  0.608857  0.452189  1
  O  O203  1  0.751431  0.391071  0.373101  1
  O  O204  1  0.249005  0.608830  0.373131  1
  O  O205  1  0.749275  0.390989  0.452233  1
  O  O206  1  0.249098  0.391005  0.373097  1
  O  O207  1  0.749400  0.608875  0.452130  1
  O  O208  1  0.251064  0.391039  0.452243  1
  O  O209  1  0.751189  0.608854  0.373183  1
  O  O210  1  0.162785  0.575422  0.485874  1
  O  O211  1  0.663077  0.424552  0.339408  1
  O  O212  1  0.337457  0.575385  0.339439  1
  O  O213  1  0.837301  0.424814  0.485879  1
  O  O214  1  0.337364  0.424758  0.339432  1
  O  O215  1  0.837246  0.575551  0.485911  1
  O  O216  1  0.163007  0.424585  0.485934  1
  O  O217  1  0.662968  0.575636  0.339407  1
  O  O218  1  0.247085  0.536047  0.451679  1
  O  O219  1  0.745871  0.463763  0.374075  1
  O  O220  1  0.253767  0.536019  0.373734  1
  O  O221  1  0.753812  0.463729  0.451200  1
  O  O222  1  0.254201  0.463715  0.374123  1
  O  O223  1  0.753305  0.536059  0.451690  1
  O  O224  1  0.246412  0.463742  0.451337  1
  O  O225  1  0.746648  0.536042  0.373614  1
  O  O226  1  0.093592  0.574440  0.446270  1
  O  O227  1  0.593334  0.424921  0.378978  1
  O  O228  1  0.406843  0.574700  0.379024  1
  O  O229  1  0.906874  0.425214  0.446322  1
  O  O230  1  0.406954  0.425011  0.379000  1
  O  O231  1  0.906918  0.574365  0.446362  1
  O  O232  1  0.093358  0.425259  0.446356  1
  O  O233  1  0.593440  0.574570  0.378978  1
  O  O234  1  0.250221  0.640039  0.412662  1
  O  O235  1  0.749905  0.359837  0.412641  1
  O  O236  1  0.250224  0.359840  0.412692  1
  O  O237  1  0.750048  0.640305  0.412648  1
  O  O238  1  0.099489  0.647435  0.388098  1
  O  O239  1  0.599578  0.352401  0.437350  1
  O  O240  1  0.400795  0.647465  0.437273  1
  O  O241  1  0.900691  0.352364  0.388105  1
  O  O242  1  0.400604  0.352360  0.437365  1
  O  O243  1  0.900641  0.647516  0.388075  1
  O  O244  1  0.099590  0.352415  0.388096  1
  O  O245  1  0.599722  0.647504  0.437321  1
  O  O246  1  0.626993  0.636272  0.317000  1
  O  O247  1  0.499980  0.535282  0.408270  1
  O  O248  1  0.500284  0.464565  0.408204  1
  O  O249  1  0.372911  0.635976  0.316969  1
  O  O250  1  0.872889  0.364162  0.508261  1
  O  O251  1  0.500197  0.584779  0.316969  1
  O  O252  1  0.000000  0.535365  0.416878  1
  O  O253  1  0.500258  0.415423  0.316949  1
  O  O254  1  -0.000000  0.392901  0.414538  1
  O  O255  1  0.100462  0.499865  0.387471  1
  O  O256  1  0.600408  0.499912  0.437711  1
  O  O257  1  0.399802  0.499819  0.437693  1
  O  O258  1  0.899673  0.499833  0.387476  1
  O  O259  1  0.249475  0.500807  0.412735  1
  O  O260  1  0.750241  0.500998  0.412650  1
  O  O261  1  -0.000000  0.607265  0.414719  1
  O  O262  1  0.500042  0.392550  0.410767  1
  O  O263  1  0.500442  0.607288  0.410683  1
  O  O264  1  0.127218  0.636142  0.508150  1
  O  O265  1  0.372973  0.364207  0.316946  1
  O  O266  1  0.003619  0.750317  0.221028  1
  O  O267  1  0.497088  0.750029  0.221274  1
  O  O268  1  0.751140  0.891081  0.181770  1
  O  O269  1  0.749212  0.891038  0.260715  1
  O  O270  1  0.249045  0.891109  0.181734  1
  O  O271  1  0.251219  0.891135  0.260790  1
  O  O272  1  0.663045  0.924538  0.148101  1
  O  O273  1  0.837188  0.924725  0.294367  1
  O  O274  1  0.337458  0.924567  0.148018  1
  O  O275  1  0.162822  0.924391  0.294523  1
  O  O276  1  0.746083  0.963785  0.182737  1
  O  O277  1  0.753928  0.963777  0.259712  1
  O  O278  1  0.253419  0.963951  0.182229  1
  O  O279  1  0.246765  0.963957  0.260343  1
  O  O280  1  0.593155  0.925127  0.187632  1
  O  O281  1  0.907016  0.925216  0.254851  1
  O  O282  1  0.406593  0.925450  0.187625  1
  O  O283  1  0.093607  0.925463  0.254904  1
  O  O284  1  0.757038  0.681853  0.185440  1
  O  O285  1  0.757065  0.817984  0.257071  1
  O  O286  1  0.742818  0.681792  0.257199  1
  O  O287  1  0.742952  0.818080  0.185286  1
  O  O288  1  0.242575  0.818135  0.257181  1
  O  O289  1  0.242886  0.681766  0.185323  1
  O  O290  1  0.257345  0.818073  0.185446  1
  O  O291  1  0.257084  0.681871  0.257057  1
  O  O292  1  0.749963  0.859680  0.221223  1
  O  O293  1  0.250035  0.859827  0.221282  1
  O  O294  1  0.599449  0.852464  0.245863  1
  O  O295  1  0.900667  0.852427  0.196657  1
  O  O296  1  0.400517  0.852356  0.245900  1
  O  O297  1  0.099592  0.852419  0.196639  1
  O  O298  1  0.750014  0.749906  0.272564  1
  O  O299  1  0.750029  0.749952  0.169962  1
  O  O300  1  0.249992  0.749944  0.170042  1
  O  O301  1  0.250031  0.750001  0.272505  1
  O  O302  1  0.655485  0.697889  0.294474  1
  O  O303  1  0.655591  0.801959  0.148012  1
  O  O304  1  0.844398  0.697752  0.148191  1
  O  O305  1  0.844839  0.802070  0.294261  1
  O  O306  1  0.342941  0.802278  0.147926  1
  O  O307  1  0.342892  0.697593  0.294554  1
  O  O308  1  0.156910  0.802182  0.294719  1
  O  O309  1  0.157550  0.697716  0.147733  1
  O  O310  1  0.593448  0.722402  0.255549  1
  O  O311  1  0.593530  0.777533  0.186965  1
  O  O312  1  0.906562  0.722382  0.187030  1
  O  O313  1  0.906455  0.777343  0.255372  1
  O  O314  1  0.407606  0.777996  0.186430  1
  O  O315  1  0.407490  0.721919  0.256059  1
  O  O316  1  0.092451  0.777984  0.256126  1
  O  O317  1  0.092433  0.721711  0.186285  1
  O  O318  1  0.500032  0.678837  0.228616  1
  O  O319  1  0.000000  0.964798  0.225622  1
  O  O320  1  -0.000000  0.821331  0.228737  1
  O  O321  1  -0.000000  0.678977  0.213997  1
  O  O322  1  0.500024  0.821187  0.213857  1
  O  O323  1  0.249961  0.998926  0.221282  1
  O  O324  1  0.499647  0.892740  0.219342  1
  O  O325  1  -0.000000  0.892851  0.223142  1
  O  O326  1  0.500406  0.964723  0.216886  1
  O  O327  1  0.500381  0.915228  0.125614  1
  O  O328  1  -0.000000  0.915225  0.316877  1
  O  O329  1  0.627217  0.863778  0.125671  1
  O  O330  1  0.872879  0.863934  0.316638  1
  O  O331  1  0.373044  0.864006  0.125604  1
  O  O332  1  0.500497  0.821235  0.420071  1
  O  O333  1  0.500519  0.678876  0.405351  1
  O  O334  1  0.497475  0.750155  0.412541  1
  O  O335  1  0.251277  0.891177  0.373096  1
  O  O336  1  0.249072  0.891149  0.452210  1
  O  O337  1  0.749214  0.891143  0.373127  1
  O  O338  1  0.750931  0.891122  0.452155  1
  O  O339  1  0.162514  0.924522  0.339402  1
  O  O340  1  0.337601  0.924575  0.485909  1
  O  O341  1  0.837064  0.924388  0.339292  1
  O  O342  1  0.663136  0.924365  0.485982  1
  O  O343  1  0.246600  0.963976  0.373595  1
  O  O344  1  0.253397  0.963969  0.451707  1
  O  O345  1  0.753607  0.963926  0.373559  1
  O  O346  1  0.746824  0.963903  0.451748  1
  O  O347  1  0.093530  0.925367  0.379028  1
  O  O348  1  0.406669  0.925472  0.446301  1
  O  O349  1  0.906969  0.925440  0.378848  1
  O  O350  1  0.593289  0.925556  0.446425  1
  O  O351  1  0.257149  0.681887  0.376880  1
  O  O352  1  0.257144  0.818120  0.448404  1
  O  O353  1  0.243017  0.681882  0.448445  1
  O  O354  1  0.243111  0.818184  0.376836  1
  O  O355  1  0.742847  0.818136  0.448559  1
  O  O356  1  0.743041  0.681860  0.376681  1
  O  O357  1  0.757235  0.818134  0.376739  1
  O  O358  1  0.757444  0.681915  0.448563  1
  O  O359  1  0.250015  0.860018  0.412644  1
  O  O360  1  0.750132  0.859798  0.412646  1
  O  O361  1  0.099412  0.852613  0.437252  1
  O  O362  1  0.400775  0.852581  0.388097  1
  O  O363  1  0.900544  0.852512  0.437276  1
  O  O364  1  0.599624  0.852562  0.388040  1
  O  O365  1  0.250683  0.749975  0.463872  1
  O  O366  1  0.250723  0.750071  0.361475  1
  O  O367  1  0.750733  0.749979  0.361346  1
  O  O368  1  0.750622  0.750072  0.463984  1
  O  O369  1  0.155533  0.697923  0.485642  1
  O  O370  1  0.155905  0.802128  0.339589  1
  O  O371  1  0.342864  0.697579  0.339367  1
  O  O372  1  0.343161  0.802490  0.485895  1
  O  O373  1  0.842646  0.802457  0.339133  1
  O  O374  1  0.843246  0.697726  0.486099  1
  O  O375  1  0.655776  0.802126  0.485862  1
  O  O376  1  0.655834  0.698046  0.339407  1
  O  O377  1  0.093904  0.722679  0.446760  1
  O  O378  1  0.093852  0.777550  0.378451  1
  O  O379  1  0.407936  0.721769  0.377854  1
  O  O380  1  0.407779  0.778101  0.447390  1
  O  O381  1  0.907991  0.778326  0.377645  1
  O  O382  1  0.907884  0.721961  0.447541  1
  O  O383  1  0.593760  0.777442  0.446967  1
  O  O384  1  0.593862  0.722455  0.378331  1
  O  O385  1  -0.000000  0.821126  0.405332  1
  O  O386  1  -0.000000  0.678779  0.420096  1
  O  O387  1  0.500125  0.964645  0.416964  1
  O  O388  1  -0.000000  0.964729  0.408229  1
  O  O389  1  0.500388  0.892746  0.414717  1
  O  O390  1  -0.000000  0.892725  0.410617  1
  O  O391  1  0.996465  0.749836  0.412485  1
  O  O392  1  0.749891  0.998808  0.412667  1
  O  O393  1  0.250126  0.998947  0.412648  1
  O  O394  1  0.499589  0.686415  0.316990  1
  O  O395  1  -0.000000  0.813620  0.317020  1
  O  O396  1  0.127045  0.863845  0.317067  1
  O  O397  1  0.100328  0.000000  0.437729  1
  O  O398  1  0.499731  0.813624  0.508334  1
  O  O399  1  0.399757  -0.000000  0.629143  1
  O  O400  1  0.600435  0.000000  0.629139  1
  O  O401  1  0.100435  0.000000  0.578912  1
  O  O402  1  0.497566  0.250324  0.603806  1
  O  O403  1  0.996790  0.250151  0.604110  1
  O  O404  1  0.251073  0.108936  0.643617  1
  O  O405  1  0.249325  0.108955  0.564468  1
  O  O406  1  0.749296  0.108918  0.643619  1
  O  O407  1  0.751218  0.108879  0.564468  1
  O  O408  1  0.162952  0.075254  0.677263  1
  O  O409  1  0.337336  0.075175  0.530817  1
  O  O410  1  0.837338  0.075443  0.677392  1
  O  O411  1  0.662895  0.075557  0.530701  1
  O  O412  1  0.246201  0.036237  0.642592  1
  O  O413  1  0.254154  0.036247  0.565531  1
  O  O414  1  0.753472  0.036084  0.643130  1
  O  O415  1  0.746693  0.036064  0.564914  1
  O  O416  1  0.093211  0.074844  0.637708  1
  O  O417  1  0.407149  0.074875  0.570354  1
  O  O418  1  0.906745  0.074498  0.637797  1
  O  O419  1  0.593603  0.074576  0.570317  1
  O  O420  1  0.257024  0.181971  0.568291  1
  O  O421  1  0.257383  0.317953  0.639825  1
  O  O422  1  0.243203  0.181929  0.639861  1
  O  O423  1  0.242885  0.318036  0.568194  1
  O  O424  1  0.742824  0.317991  0.639959  1
  O  O425  1  0.742882  0.181858  0.568141  1
  O  O426  1  0.757345  0.317942  0.568200  1
  O  O427  1  0.757434  0.181938  0.639849  1
  O  O428  1  0.250146  0.140050  0.604058  1
  O  O429  1  0.750099  0.140102  0.604027  1
  O  O430  1  0.099497  0.147383  0.579440  1
  O  O431  1  0.400814  0.147443  0.628657  1
  O  O432  1  0.900601  0.147572  0.579412  1
  O  O433  1  0.599724  0.147516  0.628698  1
  O  O434  1  0.250671  0.249921  0.655418  1
  O  O435  1  0.250738  0.250029  0.552714  1
  O  O436  1  0.750673  0.249880  0.552652  1
  O  O437  1  0.750736  0.249982  0.655450  1
  O  O438  1  0.155739  0.197691  0.677118  1
  O  O439  1  0.155677  0.302127  0.530913  1
  O  O440  1  0.342762  0.197341  0.530725  1
  O  O441  1  0.343520  0.302516  0.677320  1
  O  O442  1  0.842966  0.302469  0.530611  1
  O  O443  1  0.843168  0.197348  0.677424  1
  O  O444  1  0.655538  0.302070  0.677242  1
  O  O445  1  0.656010  0.197730  0.530791  1
  O  O446  1  0.093930  0.222554  0.638268  1
  O  O447  1  0.093821  0.277353  0.569798  1
  O  O448  1  0.407876  0.221764  0.569186  1
  O  O449  1  0.407843  0.277897  0.638808  1
  O  O450  1  0.907936  0.278058  0.569113  1
  O  O451  1  0.908034  0.221855  0.638967  1
  O  O452  1  0.593822  0.277282  0.638346  1
  O  O453  1  0.593700  0.222414  0.569637  1
  O  O454  1  0.499620  0.186169  0.508445  1
  O  O455  1  0.500453  0.321280  0.611551  1
  O  O456  1  0.500445  0.178988  0.596767  1
  O  O457  1  0.899706  0.000000  0.578907  1
  O  O458  1  0.750065  0.001222  0.604018  1
  O  O459  1  -0.000000  0.107392  0.606090  1
  O  O460  1  0.500608  0.107402  0.602014  1
  O  O461  1  -0.000000  0.035443  0.608371  1
  O  O462  1  0.499827  0.035413  0.599670  1
  O  O463  1  -0.000000  0.178941  0.611368  1
  O  O464  1  0.000000  0.321233  0.596594  1
  O  O465  1  -0.000000  0.313846  0.508399  1
  O  O466  1  0.656135  0.302273  0.722142  1
  O  O467  1  0.342982  0.302521  0.722118  1
  O  O468  1  0.499820  0.313817  0.699798  1
  O  O469  1  0.500068  0.464725  0.608478  1
  O  O470  1  -0.000000  0.535415  0.599761  1
  O  O471  1  -0.000000  0.464742  0.599598  1
  O  O472  1  0.500178  0.535353  0.608347  1
  O  O473  1  0.751189  0.608797  0.643553  1
  O  O474  1  0.251302  0.391017  0.564494  1
  O  O475  1  0.749114  0.608816  0.564559  1
  O  O476  1  0.249142  0.390975  0.643632  1
  O  O477  1  0.749215  0.390961  0.564496  1
  O  O478  1  0.249234  0.608834  0.643564  1
  O  O479  1  0.751167  0.390981  0.643593  1
  O  O480  1  0.251148  0.608781  0.564528  1
  O  O481  1  0.662943  0.575627  0.677318  1
  O  O482  1  0.162887  0.424679  0.530862  1
  O  O483  1  0.837358  0.575460  0.530805  1
  O  O484  1  0.337360  0.424786  0.677261  1
  O  O485  1  0.837230  0.424698  0.530828  1
  O  O486  1  0.337359  0.575400  0.677313  1
  O  O487  1  0.663058  0.424623  0.677263  1
  O  O488  1  0.162893  0.575599  0.530761  1
  O  O489  1  0.746724  0.535999  0.643126  1
  O  O490  1  0.246195  0.463720  0.565511  1
  O  O491  1  0.753464  0.535999  0.565026  1
  O  O492  1  0.253997  0.463701  0.642574  1
  O  O493  1  0.754051  0.463681  0.565526  1
  O  O494  1  0.253358  0.536019  0.643082  1
  O  O495  1  0.746293  0.463693  0.642608  1
  O  O496  1  0.246634  0.536005  0.564976  1
  O  O497  1  0.593441  0.574502  0.637739  1
  O  O498  1  0.093420  0.425033  0.570450  1
  O  O499  1  0.906770  0.574483  0.570379  1
  O  O500  1  0.406895  0.425078  0.637688  1
  O  O501  1  0.906978  0.425070  0.570382  1
  O  O502  1  0.406808  0.574432  0.637740  1
  O  O503  1  0.593366  0.425101  0.637698  1
  O  O504  1  0.093365  0.574535  0.570348  1
  O  O505  1  0.750038  0.640150  0.604074  1
  O  O506  1  0.250090  0.359833  0.604044  1
  O  O507  1  0.750136  0.359712  0.604059  1
  O  O508  1  0.249966  0.640100  0.604024  1
  O  O509  1  0.599471  0.647402  0.579461  1
  O  O510  1  0.099577  0.352354  0.628686  1
  O  O511  1  0.900630  0.647488  0.628667  1
  O  O512  1  0.400706  0.352309  0.579446  1
  O  O513  1  0.900614  0.352280  0.628690  1
  O  O514  1  0.400608  0.647426  0.579444  1
  O  O515  1  0.599658  0.352348  0.579415  1
  O  O516  1  0.099498  0.647372  0.628670  1
  O  O517  1  0.500188  0.392791  0.605880  1
  O  O518  1  0.873110  0.636107  0.508447  1
  O  O519  1  -0.000000  0.607392  0.601962  1
  O  O520  1  0.600460  0.499871  0.578926  1
  O  O521  1  0.100417  0.499871  0.629155  1
  O  O522  1  0.899749  0.499921  0.629159  1
  O  O523  1  0.399739  0.499921  0.578923  1
  O  O524  1  0.750012  0.500985  0.604071  1
  O  O525  1  0.250086  0.501018  0.604040  1
  O  O526  1  0.500000  0.607289  0.606121  1
  O  O527  1  -0.000000  0.392772  0.602239  1
  O  O528  1  0.127231  0.364002  0.508484  1
  O  O529  1  0.627215  0.363953  0.699653  1
  O  O530  1  -0.000000  0.415411  0.508369  1
  O  O531  1  -0.000000  0.584788  0.508338  1
  O  O532  1  0.663077  0.424552  0.722193  1
  O  O533  1  0.337364  0.424758  0.722217  1
  O  O534  1  0.500258  0.415423  0.699734  1
  O  O535  1  0.372973  0.364207  0.699731  1
  O  O536  1  0.003619  0.750317  0.603813  1
  O  O537  1  0.497088  0.750029  0.604059  1
  O  O538  1  0.751140  0.891081  0.564555  1
  O  O539  1  0.749212  0.891038  0.643500  1
  O  O540  1  0.249045  0.891109  0.564519  1
  O  O541  1  0.251219  0.891135  0.643575  1
  O  O542  1  0.663045  0.924538  0.530886  1
  O  O543  1  0.837188  0.924725  0.677152  1
  O  O544  1  0.337458  0.924567  0.530803  1
  O  O545  1  0.162822  0.924391  0.677308  1
  O  O546  1  0.746083  0.963785  0.565523  1
  O  O547  1  0.753928  0.963777  0.642497  1
  O  O548  1  0.253419  0.963951  0.565015  1
  O  O549  1  0.246765  0.963957  0.643128  1
  O  O550  1  0.593155  0.925127  0.570417  1
  O  O551  1  0.907016  0.925216  0.637636  1
  O  O552  1  0.406593  0.925450  0.570410  1
  O  O553  1  0.093607  0.925463  0.637689  1
  O  O554  1  0.757038  0.681853  0.568225  1
  O  O555  1  0.757065  0.817984  0.639856  1
  O  O556  1  0.742818  0.681792  0.639984  1
  O  O557  1  0.742952  0.818080  0.568072  1
  O  O558  1  0.242575  0.818135  0.639966  1
  O  O559  1  0.242886  0.681766  0.568108  1
  O  O560  1  0.257345  0.818073  0.568232  1
  O  O561  1  0.257084  0.681871  0.639843  1
  O  O562  1  0.749963  0.859680  0.604009  1
  O  O563  1  0.250035  0.859827  0.604067  1
  O  O564  1  0.599449  0.852464  0.628648  1
  O  O565  1  0.900667  0.852427  0.579442  1
  O  O566  1  0.400517  0.852356  0.628685  1
  O  O567  1  0.099592  0.852419  0.579424  1
  O  O568  1  0.750014  0.749906  0.655349  1
  O  O569  1  0.750029  0.749952  0.552747  1
  O  O570  1  0.249992  0.749944  0.552827  1
  O  O571  1  0.250031  0.750001  0.655290  1
  O  O572  1  0.655485  0.697889  0.677259  1
  O  O573  1  0.655591  0.801959  0.530797  1
  O  O574  1  0.844398  0.697752  0.530976  1
  O  O575  1  0.844839  0.802070  0.677046  1
  O  O576  1  0.342941  0.802278  0.530711  1
  O  O577  1  0.342892  0.697593  0.677339  1
  O  O578  1  0.156910  0.802182  0.677504  1
  O  O579  1  0.157550  0.697716  0.530518  1
  O  O580  1  0.593448  0.722402  0.638334  1
  O  O581  1  0.593530  0.777533  0.569750  1
  O  O582  1  0.906562  0.722382  0.569815  1
  O  O583  1  0.906455  0.777343  0.638157  1
  O  O584  1  0.407606  0.777996  0.569215  1
  O  O585  1  0.407490  0.721919  0.638844  1
  O  O586  1  0.092451  0.777984  0.638911  1
  O  O587  1  0.092433  0.721711  0.569070  1
  O  O588  1  -0.000000  0.686408  0.508379  1
  O  O589  1  0.500032  0.678837  0.611401  1
  O  O590  1  0.000000  0.964798  0.608407  1
  O  O591  1  0.000000  0.821331  0.611522  1
  O  O592  1  -0.000000  0.678977  0.596782  1
  O  O593  1  0.500024  0.821187  0.596642  1
  O  O594  1  0.249961  0.998926  0.604067  1
  O  O595  1  0.499647  0.892740  0.602127  1
  O  O596  1  -0.000000  0.892851  0.605927  1
  O  O597  1  0.500406  0.964723  0.599672  1
  O  O598  1  0.500381  0.915228  0.508399  1
  O  O599  1  0.627217  0.863778  0.508456  1
  O  O600  1  0.373044  0.864006  0.508389  1
  Si  Si601  1  0.191929  0.072817  0.267999  1
  Si  Si602  1  0.308391  0.072814  0.174516  1
  Si  Si603  1  0.808151  0.072818  0.268164  1
  Si  Si604  1  0.692125  0.072842  0.174348  1
  Si  Si605  1  0.213764  0.144579  0.195597  1
  Si  Si606  1  0.286553  0.144597  0.246945  1
  Si  Si607  1  0.786350  0.144605  0.195553  1
  Si  Si608  1  0.714002  0.144602  0.246944  1
  Si  Si609  1  0.186633  0.213704  0.270158  1
  Si  Si610  1  0.186523  0.286206  0.172334  1
  Si  Si611  1  0.313694  0.213494  0.172210  1
  Si  Si612  1  0.313953  0.286365  0.270301  1
  Si  Si613  1  0.813813  0.286375  0.172112  1
  Si  Si614  1  0.813899  0.213495  0.270379  1
  Si  Si615  1  0.686491  0.286157  0.270254  1
  Si  Si616  1  0.686591  0.213657  0.172234  1
  Si  Si617  1  0.112153  0.179824  0.316831  1
  Si  Si618  1  0.785017  -0.000000  0.195277  1
  Si  Si619  1  -0.000000  0.072655  0.239908  1
  Si  Si620  1  0.500399  0.072679  0.202612  1
  Si  Si621  1  -0.000000  0.146116  0.210166  1
  Si  Si622  1  0.500309  0.146126  0.232369  1
  Si  Si623  1  0.000000  0.218829  0.240436  1
  Si  Si624  1  0.000000  0.281234  0.202063  1
  Si  Si625  1  0.500176  0.218793  0.202038  1
  Si  Si626  1  0.500210  0.281197  0.240415  1
  Si  Si627  1  -0.000000  -0.000000  0.209353  1
  Si  Si628  1  0.500089  0.000000  0.233120  1
  Si  Si629  1  0.715124  -0.000000  0.247191  1
  Si  Si630  1  0.611867  0.320080  0.316910  1
  Si  Si631  1  0.692049  0.072825  0.459343  1
  Si  Si632  1  0.808183  0.072840  0.365996  1
  Si  Si633  1  0.308113  0.072821  0.459372  1
  Si  Si634  1  0.191925  0.072867  0.365915  1
  Si  Si635  1  0.713754  0.144706  0.386995  1
  Si  Si636  1  0.786352  0.144729  0.438374  1
  Si  Si637  1  0.286310  0.144689  0.386963  1
  Si  Si638  1  0.213861  0.144714  0.438353  1
  Si  Si639  1  0.686188  0.213749  0.461657  1
  Si  Si640  1  0.686432  0.286375  0.363610  1
  Si  Si641  1  0.813724  0.213702  0.363683  1
  Si  Si642  1  0.813908  0.286273  0.461590  1
  Si  Si643  1  0.313570  0.286401  0.363588  1
  Si  Si644  1  0.313763  0.213689  0.461692  1
  Si  Si645  1  0.186389  0.286355  0.461774  1
  Si  Si646  1  0.186547  0.213601  0.363503  1
  Si  Si647  1  0.888140  0.179744  0.317060  1
  Si  Si648  1  0.387857  0.320325  0.316962  1
  Si  Si649  1  0.612787  0.092038  0.508238  1
  Si  Si650  1  0.887515  0.091854  0.317083  1
  Si  Si651  1  0.387204  0.091736  0.508319  1
  Si  Si652  1  0.500052  0.072584  0.431233  1
  Si  Si653  1  -0.000000  0.072817  0.394110  1
  Si  Si654  1  0.500015  0.146088  0.401565  1
  Si  Si655  1  0.000000  0.146283  0.423848  1
  Si  Si656  1  0.499973  0.218771  0.431797  1
  Si  Si657  1  0.500008  0.281185  0.393426  1
  Si  Si658  1  -0.000000  0.218879  0.393430  1
  Si  Si659  1  -0.000000  0.281261  0.431823  1
  Si  Si660  1  -0.000000  -0.000000  0.424485  1
  Si  Si661  1  0.887961  0.320285  0.508252  1
  Si  Si662  1  0.113088  0.091913  0.316950  1
  Si  Si663  1  0.387672  0.179630  0.508331  1
  Si  Si664  1  0.692066  0.572774  0.268099  1
  Si  Si665  1  0.192033  0.427110  0.174544  1
  Si  Si666  1  0.808141  0.572753  0.174458  1
  Si  Si667  1  0.308230  0.427123  0.268001  1
  Si  Si668  1  0.808254  0.427096  0.174524  1
  Si  Si669  1  0.308156  0.572741  0.268087  1
  Si  Si670  1  0.692061  0.427094  0.268001  1
  Si  Si671  1  0.191978  0.572770  0.174413  1
  Si  Si672  1  0.713726  0.644540  0.195605  1
  Si  Si673  1  0.213842  0.355289  0.246948  1
  Si  Si674  1  0.786379  0.644574  0.246968  1
  Si  Si675  1  0.286465  0.355288  0.195581  1
  Si  Si676  1  0.786354  0.355229  0.246968  1
  Si  Si677  1  0.286361  0.644536  0.195563  1
  Si  Si678  1  0.713927  0.355246  0.195578  1
  Si  Si679  1  0.213766  0.644528  0.246931  1
  Si  Si680  1  0.715156  0.500002  0.195321  1
  Si  Si681  1  0.215103  0.500020  0.247209  1
  Si  Si682  1  0.785069  0.500027  0.247236  1
  Si  Si683  1  0.285050  0.500049  0.195298  1
  Si  Si684  1  0.500122  0.572521  0.239914  1
  Si  Si685  1  -0.000000  0.427318  0.202684  1
  Si  Si686  1  0.000000  0.572590  0.202627  1
  Si  Si687  1  0.500142  0.427342  0.239859  1
  Si  Si688  1  0.500020  0.646012  0.210198  1
  Si  Si689  1  -0.000000  0.353850  0.232390  1
  Si  Si690  1  -0.000000  0.646078  0.232354  1
  Si  Si691  1  0.500213  0.353868  0.210159  1
  Si  Si692  1  0.500096  0.499970  0.209370  1
  Si  Si693  1  0.000000  0.499992  0.233135  1
  Si  Si694  1  0.613011  0.407991  0.316935  1
  Si  Si695  1  0.192153  0.572752  0.459445  1
  Si  Si696  1  0.691997  0.427092  0.365885  1
  Si  Si697  1  0.308239  0.572774  0.365881  1
  Si  Si698  1  0.808171  0.427171  0.459404  1
  Si  Si699  1  0.308288  0.427109  0.365909  1
  Si  Si700  1  0.808193  0.572775  0.459467  1
  Si  Si701  1  0.192020  0.427145  0.459466  1
  Si  Si702  1  0.692081  0.572829  0.365845  1
  Si  Si703  1  0.213734  0.644546  0.386998  1
  Si  Si704  1  0.713859  0.355315  0.438347  1
  Si  Si705  1  0.286538  0.644565  0.438338  1
  Si  Si706  1  0.786466  0.355327  0.386975  1
  Si  Si707  1  0.286335  0.355316  0.438394  1
  Si  Si708  1  0.786390  0.644649  0.386966  1
  Si  Si709  1  0.213837  0.355329  0.387012  1
  Si  Si710  1  0.714009  0.644647  0.438356  1
  Si  Si711  1  0.387416  0.408217  0.316950  1
  Si  Si712  1  0.215197  0.499991  0.386725  1
  Si  Si713  1  0.715081  0.500055  0.438593  1
  Si  Si714  1  0.285169  0.499980  0.438633  1
  Si  Si715  1  0.784966  0.500028  0.386675  1
  Si  Si716  1  -0.000000  0.572478  0.431281  1
  Si  Si717  1  0.500174  0.427160  0.394055  1
  Si  Si718  1  0.500200  0.572589  0.394044  1
  Si  Si719  1  -0.000000  0.427464  0.431291  1
  Si  Si720  1  -0.000000  0.646025  0.401621  1
  Si  Si721  1  0.500075  0.353764  0.423848  1
  Si  Si722  1  0.500306  0.646061  0.423775  1
  Si  Si723  1  -0.000000  0.353960  0.401624  1
  Si  Si724  1  0.000000  0.499968  0.400698  1
  Si  Si725  1  0.500112  0.499892  0.424459  1
  Si  Si726  1  0.112867  0.592124  0.508302  1
  Si  Si727  1  0.612914  0.592237  0.316971  1
  Si  Si728  1  0.387375  0.591974  0.316978  1
  Si  Si729  1  0.691924  0.927159  0.174576  1
  Si  Si730  1  0.808207  0.927189  0.267888  1
  Si  Si731  1  0.308061  0.927196  0.174446  1
  Si  Si732  1  0.192118  0.927181  0.268099  1
  Si  Si733  1  0.713720  0.855297  0.246913  1
  Si  Si734  1  0.786416  0.855292  0.195551  1
  Si  Si735  1  0.286266  0.855347  0.246972  1
  Si  Si736  1  0.213848  0.855369  0.195587  1
  Si  Si737  1  0.686196  0.713625  0.270215  1
  Si  Si738  1  0.686271  0.786251  0.172283  1
  Si  Si739  1  0.813700  0.713652  0.172403  1
  Si  Si740  1  0.813806  0.786168  0.270074  1
  Si  Si741  1  0.313491  0.786343  0.172224  1
  Si  Si742  1  0.313395  0.713571  0.270272  1
  Si  Si743  1  0.186423  0.786385  0.270385  1
  Si  Si744  1  0.186660  0.713481  0.172104  1
  Si  Si745  1  0.285079  -0.000000  0.247225  1
  Si  Si746  1  0.611777  0.819910  0.125561  1
  Si  Si747  1  0.887087  0.907958  0.316804  1
  Si  Si748  1  0.387570  0.908004  0.125579  1
  Si  Si749  1  0.499890  0.927402  0.202670  1
  Si  Si750  1  0.000000  0.927481  0.239841  1
  Si  Si751  1  0.499942  0.853899  0.232363  1
  Si  Si752  1  -0.000000  0.853967  0.210167  1
  Si  Si753  1  0.499776  0.718762  0.240422  1
  Si  Si754  1  0.499840  0.781225  0.202082  1
  Si  Si755  1  0.000000  0.718779  0.202054  1
  Si  Si756  1  0.000000  0.781251  0.240382  1
  Si  Si757  1  0.215134  -0.000000  0.195315  1
  Si  Si758  1  0.888050  0.820062  0.316755  1
  Si  Si759  1  0.387758  0.820120  0.125559  1
  Si  Si760  1  0.613123  0.907820  0.125656  1
  Si  Si761  1  0.191992  0.927206  0.365822  1
  Si  Si762  1  0.308148  0.927228  0.459486  1
  Si  Si763  1  0.808234  0.927168  0.365750  1
  Si  Si764  1  0.692023  0.927172  0.459529  1
  Si  Si765  1  0.213675  0.855479  0.438320  1
  Si  Si766  1  0.286542  0.855484  0.386984  1
  Si  Si767  1  0.786273  0.855384  0.438343  1
  Si  Si768  1  0.713891  0.855412  0.386955  1
  Si  Si769  1  0.186572  0.713781  0.461442  1
  Si  Si770  1  0.186700  0.786303  0.363818  1
  Si  Si771  1  0.313708  0.713538  0.363675  1
  Si  Si772  1  0.313739  0.786483  0.461617  1
  Si  Si773  1  0.813710  0.786526  0.363476  1
  Si  Si774  1  0.813842  0.713600  0.461779  1
  Si  Si775  1  0.686524  0.786282  0.461626  1
  Si  Si776  1  0.686669  0.713755  0.363669  1
  Si  Si777  1  0.611647  0.680140  0.316981  1
  Si  Si778  1  0.112068  0.819963  0.317109  1
  Si  Si779  1  0.785040  -0.000000  0.438608  1
  Si  Si780  1  0.387625  0.679863  0.316960  1
  Si  Si781  1  0.215004  -0.000000  0.438592  1
  Si  Si782  1  0.715161  -0.000000  0.386693  1
  Si  Si783  1  0.285004  0.000000  0.386686  1
  Si  Si784  1  -0.000000  0.927437  0.393987  1
  Si  Si785  1  0.500139  0.927482  0.431321  1
  Si  Si786  1  0.000000  0.853973  0.423732  1
  Si  Si787  1  0.500256  0.853998  0.401604  1
  Si  Si788  1  0.000000  0.718812  0.431782  1
  Si  Si789  1  -0.000000  0.781270  0.393445  1
  Si  Si790  1  0.500256  0.718748  0.393481  1
  Si  Si791  1  0.500200  0.781240  0.431802  1
  Si  Si792  1  0.500082  0.000000  0.400728  1
  Si  Si793  1  0.112215  0.680024  0.508156  1
  Si  Si794  1  0.112637  0.907859  0.316960  1
  Si  Si795  1  0.191929  0.072817  0.650784  1
  Si  Si796  1  0.308391  0.072814  0.557301  1
  Si  Si797  1  0.808151  0.072818  0.650949  1
  Si  Si798  1  0.692125  0.072842  0.557133  1
  Si  Si799  1  0.213764  0.144579  0.578382  1
  Si  Si800  1  0.286553  0.144597  0.629731  1
  Si  Si801  1  0.786350  0.144605  0.578338  1
  Si  Si802  1  0.714002  0.144602  0.629729  1
  Si  Si803  1  0.186633  0.213704  0.652943  1
  Si  Si804  1  0.186523  0.286206  0.555119  1
  Si  Si805  1  0.313694  0.213494  0.554995  1
  Si  Si806  1  0.313953  0.286365  0.653086  1
  Si  Si807  1  0.813813  0.286375  0.554897  1
  Si  Si808  1  0.813899  0.213495  0.653164  1
  Si  Si809  1  0.686491  0.286157  0.653039  1
  Si  Si810  1  0.686591  0.213657  0.555019  1
  Si  Si811  1  0.111960  0.320127  0.508465  1
  Si  Si812  1  0.611675  0.179941  0.508345  1
  Si  Si813  1  0.785017  -0.000000  0.578062  1
  Si  Si814  1  -0.000000  0.072655  0.622693  1
  Si  Si815  1  0.500399  0.072679  0.585398  1
  Si  Si816  1  0.000000  0.146116  0.592951  1
  Si  Si817  1  0.500309  0.146126  0.615154  1
  Si  Si818  1  -0.000000  0.218829  0.623221  1
  Si  Si819  1  -0.000000  0.281234  0.584848  1
  Si  Si820  1  0.500176  0.218793  0.584823  1
  Si  Si821  1  0.500210  0.281197  0.623201  1
  Si  Si822  1  -0.000000  -0.000000  0.592138  1
  Si  Si823  1  0.500089  0.000000  0.615905  1
  Si  Si824  1  0.715124  0.000000  0.629976  1
  Si  Si825  1  0.611867  0.320080  0.699695  1
  Si  Si826  1  0.387857  0.320325  0.699747  1
  Si  Si827  1  0.692066  0.572774  0.650884  1
  Si  Si828  1  0.192033  0.427110  0.557329  1
  Si  Si829  1  0.808141  0.572753  0.557243  1
  Si  Si830  1  0.308230  0.427123  0.650786  1
  Si  Si831  1  0.808254  0.427096  0.557309  1
  Si  Si832  1  0.308156  0.572741  0.650873  1
  Si  Si833  1  0.692061  0.427094  0.650786  1
  Si  Si834  1  0.191978  0.572770  0.557198  1
  Si  Si835  1  0.713726  0.644540  0.578390  1
  Si  Si836  1  0.213842  0.355289  0.629733  1
  Si  Si837  1  0.786379  0.644574  0.629753  1
  Si  Si838  1  0.286465  0.355288  0.578366  1
  Si  Si839  1  0.786354  0.355229  0.629753  1
  Si  Si840  1  0.286361  0.644536  0.578348  1
  Si  Si841  1  0.713927  0.355246  0.578363  1
  Si  Si842  1  0.213766  0.644528  0.629716  1
  Si  Si843  1  0.112904  0.408032  0.508401  1
  Si  Si844  1  0.887323  0.592089  0.508364  1
  Si  Si845  1  0.715156  0.500002  0.578106  1
  Si  Si846  1  0.215103  0.500020  0.629994  1
  Si  Si847  1  0.785069  0.500027  0.630021  1
  Si  Si848  1  0.285050  0.500049  0.578083  1
  Si  Si849  1  0.500122  0.572521  0.622699  1
  Si  Si850  1  0.000000  0.427318  0.585469  1
  Si  Si851  1  0.000000  0.572590  0.585412  1
  Si  Si852  1  0.500142  0.427342  0.622644  1
  Si  Si853  1  0.500020  0.646012  0.592983  1
  Si  Si854  1  -0.000000  0.353850  0.615176  1
  Si  Si855  1  -0.000000  0.646078  0.615139  1
  Si  Si856  1  0.500213  0.353868  0.592944  1
  Si  Si857  1  0.500096  0.499970  0.592155  1
  Si  Si858  1  0.000000  0.499992  0.615920  1
  Si  Si859  1  0.887301  0.408179  0.508343  1
  Si  Si860  1  0.613011  0.407991  0.699720  1
  Si  Si861  1  0.387416  0.408217  0.699735  1
  Si  Si862  1  0.691924  0.927159  0.557361  1
  Si  Si863  1  0.808207  0.927189  0.650673  1
  Si  Si864  1  0.308061  0.927196  0.557231  1
  Si  Si865  1  0.192118  0.927181  0.650884  1
  Si  Si866  1  0.713720  0.855297  0.629698  1
  Si  Si867  1  0.786416  0.855292  0.578336  1
  Si  Si868  1  0.286266  0.855347  0.629757  1
  Si  Si869  1  0.213848  0.855369  0.578372  1
  Si  Si870  1  0.686196  0.713625  0.653000  1
  Si  Si871  1  0.686271  0.786251  0.555068  1
  Si  Si872  1  0.813700  0.713652  0.555188  1
  Si  Si873  1  0.813806  0.786168  0.652860  1
  Si  Si874  1  0.313491  0.786343  0.555009  1
  Si  Si875  1  0.313395  0.713571  0.653057  1
  Si  Si876  1  0.186423  0.786385  0.653170  1
  Si  Si877  1  0.186660  0.713481  0.554890  1
  Si  Si878  1  0.285079  0.000000  0.630010  1
  Si  Si879  1  0.611777  0.819910  0.508346  1
  Si  Si880  1  0.387570  0.908004  0.508364  1
  Si  Si881  1  0.499890  0.927402  0.585455  1
  Si  Si882  1  0.000000  0.927481  0.622626  1
  Si  Si883  1  0.499942  0.853899  0.615148  1
  Si  Si884  1  -0.000000  0.853967  0.592953  1
  Si  Si885  1  0.499776  0.718762  0.623207  1
  Si  Si886  1  0.499840  0.781225  0.584867  1
  Si  Si887  1  -0.000000  0.718779  0.584839  1
  Si  Si888  1  -0.000000  0.781251  0.623167  1
  Si  Si889  1  0.215134  0.000000  0.578100  1
  Si  Si890  1  0.888199  0.679978  0.508481  1
  Si  Si891  1  0.387758  0.820120  0.508344  1
  Si  Si892  1  0.613123  0.907820  0.508441  1
  H  H893  1  0.337601  0.924575  0.087400  1
  H  H894  1  0.663136  0.924365  0.087474  1
  H  H895  1  0.343161  0.802490  0.087386  1
  H  H896  1  0.655776  0.802126  0.087353  1
  H  H897  1  0.337336  0.075175  0.132308  1
  H  H898  1  0.662895  0.075557  0.132192  1
  H  H899  1  0.155677  0.302127  0.132404  1
  H  H900  1  0.342762  0.197341  0.132216  1
  H  H901  1  0.842966  0.302469  0.132103  1
  H  H902  1  0.656010  0.197730  0.132282  1
  H  H903  1  0.162887  0.424679  0.132353  1
  H  H904  1  0.837358  0.575460  0.132297  1
  H  H905  1  0.837230  0.424698  0.132320  1
  H  H906  1  0.162893  0.575599  0.132253  1
  H  H907  1  0.844398  0.697752  0.132467  1
  H  H908  1  0.157550  0.697716  0.132009  1
  H  H909  1  0.162952  0.075254  0.692987  1
  H  H910  1  0.837338  0.075443  0.693116  1
  H  H911  1  0.155739  0.197691  0.692842  1
  H  H912  1  0.843168  0.197348  0.693148  1
  H  H913  1  0.656135  0.302273  0.737865  1
  H  H914  1  0.342982  0.302521  0.737842  1
  H  H915  1  0.662943  0.575627  0.693042  1
  H  H916  1  0.337359  0.575400  0.693037  1
  H  H917  1  0.663077  0.424552  0.737917  1
  H  H918  1  0.337364  0.424758  0.737940  1
  H  H919  1  0.837188  0.924725  0.692875  1
  H  H920  1  0.162822  0.924391  0.693032  1
  H  H921  1  0.655485  0.697889  0.692983  1
  H  H922  1  0.844839  0.802070  0.692770  1
  H  H923  1  0.342892  0.697593  0.693062  1
  H  H924  1  0.156910  0.802182  0.693228  1
