# generated using pymatgen
data_Si73(HO37)4
_symmetry_space_group_name_H-M   'P 1'
_cell_length_a   13.77465444
_cell_length_b   35.19864774
_cell_length_c   84.98806277
_cell_angle_alpha   90.00000000
_cell_angle_beta   90.00000000
_cell_angle_gamma   90.00000000
_symmetry_Int_Tables_number   1
_chemical_formula_structural   Si73(HO37)4
_chemical_formula_sum   'Si584 H32 O1184'
_cell_volume   41206.395041
_cell_formula_units_Z   8
loop_
 _symmetry_equiv_pos_site_id
 _symmetry_equiv_pos_as_xyz
  1  'x, y, z'
loop_
 _atom_site_type_symbol
 _atom_site_label
 _atom_site_symmetry_multiplicity
 _atom_site_fract_x
 _atom_site_fract_y
 _atom_site_fract_z
 _atom_site_occupancy
  O  O1  1  0.399757  0.000000  0.135844  1
  O  O2  1  0.600435  0.000000  0.135842  1
  O  O3  1  0.100435  0.000000  0.102015  1
  O  O4  1  0.497566  0.250324  0.118781  1
  O  O5  1  0.996790  0.250151  0.118985  1
  O  O6  1  0.251073  0.108936  0.145593  1
  O  O7  1  0.249325  0.108955  0.092287  1
  O  O8  1  0.749296  0.108918  0.145594  1
  O  O9  1  0.751218  0.108879  0.092286  1
  O  O10  1  0.162952  0.075254  0.168253  1
  O  O11  1  0.337336  0.075175  0.069623  1
  O  O12  1  0.837338  0.075443  0.168340  1
  O  O13  1  0.662895  0.075557  0.069544  1
  O  O14  1  0.246201  0.036237  0.144903  1
  O  O15  1  0.254154  0.036247  0.093003  1
  O  O16  1  0.753472  0.036084  0.145265  1
  O  O17  1  0.746693  0.036064  0.092587  1
  O  O18  1  0.093211  0.074844  0.141613  1
  O  O19  1  0.407149  0.074875  0.096251  1
  O  O20  1  0.906745  0.074498  0.141673  1
  O  O21  1  0.593603  0.074576  0.096226  1
  O  O22  1  0.257024  0.181971  0.094861  1
  O  O23  1  0.257383  0.317953  0.143039  1
  O  O24  1  0.243203  0.181929  0.143063  1
  O  O25  1  0.242885  0.318036  0.094796  1
  O  O26  1  0.742824  0.317991  0.143129  1
  O  O27  1  0.742882  0.181858  0.094760  1
  O  O28  1  0.757345  0.317942  0.094800  1
  O  O29  1  0.757434  0.181938  0.143055  1
  O  O30  1  0.250146  0.140050  0.118950  1
  O  O31  1  0.750099  0.140102  0.118930  1
  O  O32  1  0.099497  0.147383  0.102370  1
  O  O33  1  0.400814  0.147443  0.135517  1
  O  O34  1  0.900601  0.147572  0.102351  1
  O  O35  1  0.599724  0.147516  0.135545  1
  O  O36  1  0.250671  0.249921  0.153541  1
  O  O37  1  0.250738  0.250029  0.084370  1
  O  O38  1  0.750673  0.249880  0.084329  1
  O  O39  1  0.750736  0.249982  0.153563  1
  O  O40  1  0.155739  0.197691  0.168156  1
  O  O41  1  0.155677  0.302127  0.069687  1
  O  O42  1  0.342762  0.197341  0.069561  1
  O  O43  1  0.343520  0.302516  0.168291  1
  O  O44  1  0.842966  0.302469  0.069484  1
  O  O45  1  0.843168  0.197348  0.168362  1
  O  O46  1  0.655538  0.302070  0.168239  1
  O  O47  1  0.656010  0.197730  0.069605  1
  O  O48  1  0.093930  0.222554  0.141990  1
  O  O49  1  0.093821  0.277353  0.095876  1
  O  O50  1  0.407876  0.221764  0.095464  1
  O  O51  1  0.407843  0.277897  0.142354  1
  O  O52  1  0.907936  0.278058  0.095415  1
  O  O53  1  0.908034  0.221855  0.142461  1
  O  O54  1  0.593822  0.277282  0.142043  1
  O  O55  1  0.593700  0.222414  0.095768  1
  O  O56  1  0.127337  0.135945  0.183330  1
  O  O57  1  0.500453  0.321280  0.123996  1
  O  O58  1  0.500445  0.178988  0.114040  1
  O  O59  1  0.899706  0.000000  0.102011  1
  O  O60  1  0.750065  0.001222  0.118923  1
  O  O61  1  -0.000000  0.107392  0.120319  1
  O  O62  1  0.500608  0.107402  0.117573  1
  O  O63  1  -0.000000  0.035443  0.121855  1
  O  O64  1  0.499827  0.035413  0.115995  1
  O  O65  1  -0.000000  0.178941  0.123874  1
  O  O66  1  -0.000000  0.321233  0.113923  1
  O  O67  1  0.000000  0.084558  0.183431  1
  O  O68  1  0.001645  0.250706  0.247558  1
  O  O69  1  0.497942  0.249504  0.247616  1
  O  O70  1  -0.000000  0.321454  0.252990  1
  O  O71  1  0.751192  0.108933  0.274457  1
  O  O72  1  0.748995  0.108965  0.221234  1
  O  O73  1  0.249275  0.109023  0.274491  1
  O  O74  1  0.251171  0.108936  0.221218  1
  O  O75  1  0.662906  0.075358  0.297111  1
  O  O76  1  0.837467  0.075199  0.198597  1
  O  O77  1  0.337131  0.075142  0.297144  1
  O  O78  1  0.163157  0.075373  0.198526  1
  O  O79  1  0.746221  0.036207  0.273788  1
  O  O80  1  0.754053  0.036232  0.221936  1
  O  O81  1  0.253688  0.036290  0.273773  1
  O  O82  1  0.246027  0.036251  0.221887  1
  O  O83  1  0.593377  0.074839  0.270470  1
  O  O84  1  0.906799  0.074945  0.225248  1
  O  O85  1  0.406860  0.074774  0.270505  1
  O  O86  1  0.093188  0.074942  0.225168  1
  O  O87  1  0.757097  0.181997  0.223703  1
  O  O88  1  0.757355  0.317960  0.271930  1
  O  O89  1  0.742740  0.181938  0.272056  1
  O  O90  1  0.742965  0.318104  0.223655  1
  O  O91  1  0.242675  0.318070  0.272031  1
  O  O92  1  0.242820  0.181905  0.223642  1
  O  O93  1  0.257178  0.318003  0.223743  1
  O  O94  1  0.257326  0.182064  0.271943  1
  O  O95  1  0.750139  0.140293  0.247860  1
  O  O96  1  0.249887  0.140216  0.247836  1
  O  O97  1  0.599509  0.147618  0.231281  1
  O  O98  1  0.900610  0.147677  0.264471  1
  O  O99  1  0.400549  0.147651  0.231273  1
  O  O100  1  0.099579  0.147617  0.264487  1
  O  O101  1  0.750173  0.249984  0.282476  1
  O  O102  1  0.750211  0.250067  0.213255  1
  O  O103  1  0.250219  0.249965  0.213270  1
  O  O104  1  0.250271  0.250067  0.282477  1
  O  O105  1  0.655275  0.197923  0.297162  1
  O  O106  1  0.656135  0.302273  0.198479  1
  O  O107  1  0.844012  0.197706  0.198551  1
  O  O108  1  0.844323  0.302419  0.297083  1
  O  O109  1  0.342982  0.302521  0.198463  1
  O  O110  1  0.343509  0.197519  0.297180  1
  O  O111  1  0.156306  0.302314  0.297261  1
  O  O112  1  0.156948  0.197697  0.198373  1
  O  O113  1  0.593526  0.222600  0.270951  1
  O  O114  1  0.593402  0.277738  0.224633  1
  O  O115  1  0.907010  0.222213  0.224624  1
  O  O116  1  0.906958  0.277430  0.271002  1
  O  O117  1  0.407625  0.278101  0.224385  1
  O  O118  1  0.407507  0.222245  0.271222  1
  O  O119  1  0.093008  0.277656  0.271199  1
  O  O120  1  0.092783  0.221966  0.224397  1
  O  O121  1  -0.000000  0.186193  0.183392  1
  O  O122  1  0.499820  0.313817  0.183430  1
  O  O123  1  0.372766  0.135747  0.312250  1
  O  O124  1  0.873203  0.135867  0.183542  1
  O  O125  1  0.899709  0.000000  0.264732  1
  O  O126  1  0.399701  -0.000000  0.230907  1
  O  O127  1  0.499932  0.107159  0.249082  1
  O  O128  1  -0.000000  0.107519  0.246559  1
  O  O129  1  0.500066  0.035241  0.250793  1
  O  O130  1  0.000000  0.035463  0.244915  1
  O  O131  1  0.500086  0.178641  0.252925  1
  O  O132  1  0.500146  0.320932  0.242985  1
  O  O133  1  -0.000000  0.179179  0.243019  1
  O  O134  1  0.500057  0.084570  0.312247  1
  O  O135  1  0.626995  0.136072  0.312205  1
  O  O136  1  0.600456  0.000000  0.230902  1
  O  O137  1  0.500068  0.464725  0.121927  1
  O  O138  1  0.000000  0.535415  0.116056  1
  O  O139  1  0.000000  0.464742  0.115946  1
  O  O140  1  0.500178  0.535353  0.121839  1
  O  O141  1  0.751189  0.608797  0.145549  1
  O  O142  1  0.251302  0.391017  0.092304  1
  O  O143  1  0.749114  0.608816  0.092348  1
  O  O144  1  0.249142  0.390975  0.145603  1
  O  O145  1  0.749215  0.390961  0.092306  1
  O  O146  1  0.249234  0.608834  0.145557  1
  O  O147  1  0.751167  0.390981  0.145577  1
  O  O148  1  0.251148  0.608781  0.092327  1
  O  O149  1  0.662943  0.575627  0.168291  1
  O  O150  1  0.162887  0.424679  0.069653  1
  O  O151  1  0.837358  0.575460  0.069615  1
  O  O152  1  0.337360  0.424786  0.168252  1
  O  O153  1  0.837230  0.424698  0.069631  1
  O  O154  1  0.337359  0.575400  0.168287  1
  O  O155  1  0.663058  0.424623  0.168253  1
  O  O156  1  0.162893  0.575599  0.069585  1
  O  O157  1  0.746724  0.535999  0.145262  1
  O  O158  1  0.246195  0.463720  0.092989  1
  O  O159  1  0.753464  0.535999  0.092662  1
  O  O160  1  0.253997  0.463701  0.144890  1
  O  O161  1  0.754051  0.463681  0.092999  1
  O  O162  1  0.253358  0.536019  0.145232  1
  O  O163  1  0.746293  0.463693  0.144913  1
  O  O164  1  0.246634  0.536005  0.092629  1
  O  O165  1  0.593441  0.574502  0.141634  1
  O  O166  1  0.093420  0.425033  0.096315  1
  O  O167  1  0.906770  0.574483  0.096268  1
  O  O168  1  0.406895  0.425078  0.141600  1
  O  O169  1  0.906978  0.425070  0.096270  1
  O  O170  1  0.406808  0.574432  0.141635  1
  O  O171  1  0.593366  0.425101  0.141607  1
  O  O172  1  0.093365  0.574535  0.096247  1
  O  O173  1  0.750038  0.640150  0.118961  1
  O  O174  1  0.250090  0.359833  0.118941  1
  O  O175  1  0.750136  0.359712  0.118951  1
  O  O176  1  0.249966  0.640100  0.118927  1
  O  O177  1  0.599471  0.647402  0.102384  1
  O  O178  1  0.099577  0.352354  0.135537  1
  O  O179  1  0.900630  0.647488  0.135524  1
  O  O180  1  0.400706  0.352309  0.102374  1
  O  O181  1  0.900614  0.352280  0.135540  1
  O  O182  1  0.400608  0.647426  0.102373  1
  O  O183  1  0.599658  0.352348  0.102353  1
  O  O184  1  0.099498  0.647372  0.135526  1
  O  O185  1  0.500188  0.392791  0.120178  1
  O  O186  1  -0.000000  0.607392  0.117538  1
  O  O187  1  0.600460  0.499871  0.102024  1
  O  O188  1  0.100417  0.499871  0.135853  1
  O  O189  1  0.899749  0.499921  0.135856  1
  O  O190  1  0.399739  0.499921  0.102022  1
  O  O191  1  0.750012  0.500985  0.118959  1
  O  O192  1  0.250086  0.501018  0.118938  1
  O  O193  1  0.500000  0.607289  0.120340  1
  O  O194  1  -0.000000  0.392772  0.117725  1
  O  O195  1  0.627215  0.363953  0.183333  1
  O  O196  1  -0.000000  0.464787  0.250820  1
  O  O197  1  0.251151  0.608857  0.274470  1
  O  O198  1  0.751431  0.391071  0.221205  1
  O  O199  1  0.249005  0.608830  0.221225  1
  O  O200  1  0.749275  0.390989  0.274500  1
  O  O201  1  0.249098  0.391005  0.221203  1
  O  O202  1  0.749400  0.608875  0.274431  1
  O  O203  1  0.251064  0.391039  0.274507  1
  O  O204  1  0.751189  0.608854  0.221260  1
  O  O205  1  0.162785  0.575422  0.297157  1
  O  O206  1  0.663077  0.424552  0.198514  1
  O  O207  1  0.337457  0.575385  0.198534  1
  O  O208  1  0.837301  0.424814  0.297161  1
  O  O209  1  0.337364  0.424758  0.198529  1
  O  O210  1  0.837246  0.575551  0.297182  1
  O  O211  1  0.163007  0.424585  0.297198  1
  O  O212  1  0.662968  0.575636  0.198513  1
  O  O213  1  0.247085  0.536047  0.274127  1
  O  O214  1  0.745871  0.463763  0.221861  1
  O  O215  1  0.253767  0.536019  0.221632  1
  O  O216  1  0.753812  0.463729  0.273804  1
  O  O217  1  0.254201  0.463715  0.221894  1
  O  O218  1  0.753305  0.536059  0.274134  1
  O  O219  1  0.246412  0.463742  0.273897  1
  O  O220  1  0.746648  0.536042  0.221551  1
  O  O221  1  0.093592  0.574440  0.270484  1
  O  O222  1  0.593334  0.424921  0.225163  1
  O  O223  1  0.406843  0.574700  0.225194  1
  O  O224  1  0.906874  0.425214  0.270519  1
  O  O225  1  0.406954  0.425011  0.225178  1
  O  O226  1  0.906918  0.574365  0.270546  1
  O  O227  1  0.093358  0.425259  0.270542  1
  O  O228  1  0.593440  0.574570  0.225163  1
  O  O229  1  0.250221  0.640039  0.247850  1
  O  O230  1  0.749905  0.359837  0.247835  1
  O  O231  1  0.250224  0.359840  0.247870  1
  O  O232  1  0.750048  0.640305  0.247840  1
  O  O233  1  0.099489  0.647435  0.231306  1
  O  O234  1  0.599578  0.352401  0.264477  1
  O  O235  1  0.400795  0.647465  0.264425  1
  O  O236  1  0.900691  0.352364  0.231310  1
  O  O237  1  0.400604  0.352360  0.264486  1
  O  O238  1  0.900641  0.647516  0.231290  1
  O  O239  1  0.099590  0.352415  0.231304  1
  O  O240  1  0.599722  0.647504  0.264457  1
  O  O241  1  0.626993  0.636272  0.183422  1
  O  O242  1  0.499980  0.535282  0.244891  1
  O  O243  1  0.500284  0.464565  0.244847  1
  O  O244  1  0.372911  0.635976  0.183401  1
  O  O245  1  0.872889  0.364162  0.312234  1
  O  O246  1  0.500197  0.584779  0.183401  1
  O  O247  1  -0.000000  0.535365  0.250689  1
  O  O248  1  0.500258  0.415423  0.183387  1
  O  O249  1  -0.000000  0.392901  0.249113  1
  O  O250  1  0.100462  0.499865  0.230883  1
  O  O251  1  0.600408  0.499912  0.264720  1
  O  O252  1  0.399802  0.499819  0.264707  1
  O  O253  1  0.899673  0.499833  0.230887  1
  O  O254  1  0.249475  0.500807  0.247899  1
  O  O255  1  0.750241  0.500998  0.247842  1
  O  O256  1  -0.000000  0.607265  0.249235  1
  O  O257  1  0.500042  0.392550  0.246574  1
  O  O258  1  0.500442  0.607288  0.246517  1
  O  O259  1  0.127218  0.636142  0.312160  1
  O  O260  1  0.372973  0.364207  0.183385  1
  O  O261  1  0.003619  0.750317  0.118785  1
  O  O262  1  0.497088  0.750029  0.118951  1
  O  O263  1  0.751140  0.891081  0.092345  1
  O  O264  1  0.749212  0.891038  0.145514  1
  O  O265  1  0.249045  0.891109  0.092321  1
  O  O266  1  0.251219  0.891135  0.145565  1
  O  O267  1  0.663045  0.924538  0.069670  1
  O  O268  1  0.837188  0.924725  0.168178  1
  O  O269  1  0.337458  0.924567  0.069614  1
  O  O270  1  0.162822  0.924391  0.168284  1
  O  O271  1  0.746083  0.963785  0.092997  1
  O  O272  1  0.753928  0.963777  0.144839  1
  O  O273  1  0.253419  0.963951  0.092655  1
  O  O274  1  0.246765  0.963957  0.145264  1
  O  O275  1  0.593155  0.925127  0.096293  1
  O  O276  1  0.907016  0.925216  0.141565  1
  O  O277  1  0.406593  0.925450  0.096289  1
  O  O278  1  0.093607  0.925463  0.141600  1
  O  O279  1  0.757038  0.681853  0.094817  1
  O  O280  1  0.757065  0.817984  0.143060  1
  O  O281  1  0.742818  0.681792  0.143146  1
  O  O282  1  0.742952  0.818080  0.094714  1
  O  O283  1  0.242575  0.818135  0.143134  1
  O  O284  1  0.242886  0.681766  0.094738  1
  O  O285  1  0.257345  0.818073  0.094821  1
  O  O286  1  0.257084  0.681871  0.143051  1
  O  O287  1  0.749963  0.859680  0.118917  1
  O  O288  1  0.250035  0.859827  0.118956  1
  O  O289  1  0.599449  0.852464  0.135512  1
  O  O290  1  0.900667  0.852427  0.102372  1
  O  O291  1  0.400517  0.852356  0.135536  1
  O  O292  1  0.099592  0.852419  0.102359  1
  O  O293  1  0.750014  0.749906  0.153494  1
  O  O294  1  0.750029  0.749952  0.084393  1
  O  O295  1  0.249992  0.749944  0.084447  1
  O  O296  1  0.250031  0.750001  0.153455  1
  O  O297  1  0.655485  0.697889  0.168251  1
  O  O298  1  0.655591  0.801959  0.069610  1
  O  O299  1  0.844398  0.697752  0.069730  1
  O  O300  1  0.844839  0.802070  0.168107  1
  O  O301  1  0.342941  0.802278  0.069551  1
  O  O302  1  0.342892  0.697593  0.168304  1
  O  O303  1  0.156910  0.802182  0.168416  1
  O  O304  1  0.157550  0.697716  0.069422  1
  O  O305  1  0.593448  0.722402  0.142035  1
  O  O306  1  0.593530  0.777533  0.095844  1
  O  O307  1  0.906562  0.722382  0.095888  1
  O  O308  1  0.906455  0.777343  0.141915  1
  O  O309  1  0.407606  0.777996  0.095484  1
  O  O310  1  0.407490  0.721919  0.142378  1
  O  O311  1  0.092451  0.777984  0.142424  1
  O  O312  1  0.092433  0.721711  0.095386  1
  O  O313  1  0.500032  0.678837  0.123896  1
  O  O314  1  0.000000  0.964798  0.121880  1
  O  O315  1  -0.000000  0.821331  0.123977  1
  O  O316  1  0.000000  0.678977  0.114050  1
  O  O317  1  0.500024  0.821187  0.113956  1
  O  O318  1  0.249961  0.998926  0.118956  1
  O  O319  1  0.499647  0.892740  0.117650  1
  O  O320  1  -0.000000  0.892851  0.120209  1
  O  O321  1  0.500406  0.964723  0.115996  1
  O  O322  1  -0.000000  0.915225  0.183339  1
  O  O323  1  0.872879  0.863934  0.183178  1
  O  O324  1  0.500497  0.821235  0.252839  1
  O  O325  1  0.500519  0.678876  0.242925  1
  O  O326  1  0.497475  0.750155  0.247768  1
  O  O327  1  0.251277  0.891177  0.221202  1
  O  O328  1  0.249072  0.891149  0.274485  1
  O  O329  1  0.749214  0.891143  0.221223  1
  O  O330  1  0.750931  0.891122  0.274448  1
  O  O331  1  0.162514  0.924522  0.198509  1
  O  O332  1  0.337601  0.924575  0.297181  1
  O  O333  1  0.837064  0.924388  0.198435  1
  O  O334  1  0.663136  0.924365  0.297230  1
  O  O335  1  0.246600  0.963976  0.221538  1
  O  O336  1  0.253397  0.963969  0.274146  1
  O  O337  1  0.753607  0.963926  0.221514  1
  O  O338  1  0.746824  0.963903  0.274174  1
  O  O339  1  0.093530  0.925367  0.225197  1
  O  O340  1  0.406669  0.925472  0.270505  1
  O  O341  1  0.906969  0.925440  0.225076  1
  O  O342  1  0.593289  0.925556  0.270589  1
  O  O343  1  0.257149  0.681887  0.223750  1
  O  O344  1  0.257144  0.818120  0.271921  1
  O  O345  1  0.243017  0.681882  0.271949  1
  O  O346  1  0.243111  0.818184  0.223721  1
  O  O347  1  0.742847  0.818136  0.272026  1
  O  O348  1  0.743041  0.681860  0.223617  1
  O  O349  1  0.757235  0.818134  0.223656  1
  O  O350  1  0.757444  0.681915  0.272029  1
  O  O351  1  0.250015  0.860018  0.247838  1
  O  O352  1  0.750132  0.859798  0.247839  1
  O  O353  1  0.099412  0.852613  0.264411  1
  O  O354  1  0.400775  0.852581  0.231305  1
  O  O355  1  0.900544  0.852512  0.264427  1
  O  O356  1  0.599624  0.852562  0.231267  1
  O  O357  1  0.250683  0.749975  0.282339  1
  O  O358  1  0.250723  0.750071  0.213375  1
  O  O359  1  0.750733  0.749979  0.213289  1
  O  O360  1  0.750622  0.750072  0.282414  1
  O  O361  1  0.155533  0.697923  0.297001  1
  O  O362  1  0.155905  0.802128  0.198635  1
  O  O363  1  0.342864  0.697579  0.198485  1
  O  O364  1  0.343161  0.802490  0.297171  1
  O  O365  1  0.842646  0.802457  0.198328  1
  O  O366  1  0.843246  0.697726  0.297309  1
  O  O367  1  0.655776  0.802126  0.297149  1
  O  O368  1  0.655834  0.698046  0.198513  1
  O  O369  1  0.093904  0.722679  0.270814  1
  O  O370  1  0.093852  0.777550  0.224809  1
  O  O371  1  0.407936  0.721769  0.224407  1
  O  O372  1  0.407779  0.778101  0.271239  1
  O  O373  1  0.907991  0.778326  0.224266  1
  O  O374  1  0.907884  0.721961  0.271340  1
  O  O375  1  0.593760  0.777442  0.270954  1
  O  O376  1  0.593862  0.722455  0.224728  1
  O  O377  1  0.000000  0.821126  0.242913  1
  O  O378  1  0.000000  0.678779  0.252856  1
  O  O379  1  0.500125  0.964645  0.250747  1
  O  O380  1  -0.000000  0.964729  0.244864  1
  O  O381  1  0.500388  0.892746  0.249233  1
  O  O382  1  -0.000000  0.892725  0.246472  1
  O  O383  1  0.996465  0.749836  0.247731  1
  O  O384  1  0.749891  0.998808  0.247853  1
  O  O385  1  0.250126  0.998947  0.247840  1
  O  O386  1  0.499589  0.686415  0.183415  1
  O  O387  1  -0.000000  0.813620  0.183435  1
  O  O388  1  0.127045  0.863845  0.183467  1
  O  O389  1  0.100328  0.000000  0.264732  1
  O  O390  1  0.499731  0.813624  0.312284  1
  O  O391  1  0.399757  0.000000  0.393648  1
  O  O392  1  0.600435  0.000000  0.393645  1
  O  O393  1  0.100435  0.000000  0.359818  1
  O  O394  1  0.497566  0.250324  0.376584  1
  O  O395  1  0.996790  0.250151  0.376789  1
  O  O396  1  0.251073  0.108936  0.403396  1
  O  O397  1  0.249325  0.108955  0.350090  1
  O  O398  1  0.749296  0.108918  0.403397  1
  O  O399  1  0.751218  0.108879  0.350089  1
  O  O400  1  0.162952  0.075254  0.426057  1
  O  O401  1  0.337336  0.075175  0.327426  1
  O  O402  1  0.837338  0.075443  0.426143  1
  O  O403  1  0.662895  0.075557  0.327348  1
  O  O404  1  0.246201  0.036237  0.402706  1
  O  O405  1  0.254154  0.036247  0.350806  1
  O  O406  1  0.753472  0.036084  0.403068  1
  O  O407  1  0.746693  0.036064  0.350390  1
  O  O408  1  0.093211  0.074844  0.399416  1
  O  O409  1  0.407149  0.074875  0.354054  1
  O  O410  1  0.906745  0.074498  0.399477  1
  O  O411  1  0.593603  0.074576  0.354029  1
  O  O412  1  0.257024  0.181971  0.352664  1
  O  O413  1  0.257383  0.317953  0.400842  1
  O  O414  1  0.243203  0.181929  0.400866  1
  O  O415  1  0.242885  0.318036  0.352599  1
  O  O416  1  0.742824  0.317991  0.400932  1
  O  O417  1  0.742882  0.181858  0.352563  1
  O  O418  1  0.757345  0.317942  0.352603  1
  O  O419  1  0.757434  0.181938  0.400858  1
  O  O420  1  0.250146  0.140050  0.376753  1
  O  O421  1  0.750099  0.140102  0.376733  1
  O  O422  1  0.099497  0.147383  0.360173  1
  O  O423  1  0.400814  0.147443  0.393320  1
  O  O424  1  0.900601  0.147572  0.360154  1
  O  O425  1  0.599724  0.147516  0.393348  1
  O  O426  1  0.250671  0.249921  0.411344  1
  O  O427  1  0.250738  0.250029  0.342173  1
  O  O428  1  0.750673  0.249880  0.342132  1
  O  O429  1  0.750736  0.249982  0.411366  1
  O  O430  1  0.155739  0.197691  0.425959  1
  O  O431  1  0.155677  0.302127  0.327490  1
  O  O432  1  0.342762  0.197341  0.327364  1
  O  O433  1  0.343520  0.302516  0.426094  1
  O  O434  1  0.842966  0.302469  0.327288  1
  O  O435  1  0.843168  0.197348  0.426165  1
  O  O436  1  0.655538  0.302070  0.426042  1
  O  O437  1  0.656010  0.197730  0.327408  1
  O  O438  1  0.093930  0.222554  0.399793  1
  O  O439  1  0.093821  0.277353  0.353680  1
  O  O440  1  0.407876  0.221764  0.353267  1
  O  O441  1  0.407843  0.277897  0.400157  1
  O  O442  1  0.907936  0.278058  0.353218  1
  O  O443  1  0.908034  0.221855  0.400264  1
  O  O444  1  0.593822  0.277282  0.399846  1
  O  O445  1  0.593700  0.222414  0.353571  1
  O  O446  1  0.499620  0.186169  0.312359  1
  O  O447  1  0.127337  0.135945  0.441133  1
  O  O448  1  0.500453  0.321280  0.381799  1
  O  O449  1  0.500445  0.178988  0.371843  1
  O  O450  1  0.899706  0.000000  0.359814  1
  O  O451  1  0.750065  0.001222  0.376726  1
  O  O452  1  0.000000  0.107392  0.378122  1
  O  O453  1  0.500608  0.107402  0.375377  1
  O  O454  1  0.000000  0.035443  0.379658  1
  O  O455  1  0.499827  0.035413  0.373798  1
  O  O456  1  0.000000  0.178941  0.381677  1
  O  O457  1  0.000000  0.321233  0.371727  1
  O  O458  1  0.000000  0.313846  0.312327  1
  O  O459  1  0.000000  0.084558  0.441234  1
  O  O460  1  0.001645  0.250706  0.505361  1
  O  O461  1  0.497942  0.249504  0.505419  1
  O  O462  1  0.000000  0.321454  0.510793  1
  O  O463  1  0.751192  0.108933  0.532260  1
  O  O464  1  0.748995  0.108965  0.479037  1
  O  O465  1  0.249275  0.109023  0.532294  1
  O  O466  1  0.251171  0.108936  0.479021  1
  O  O467  1  0.662906  0.075358  0.554914  1
  O  O468  1  0.837467  0.075199  0.456400  1
  O  O469  1  0.337131  0.075142  0.554947  1
  O  O470  1  0.163157  0.075373  0.456330  1
  O  O471  1  0.746221  0.036207  0.531591  1
  O  O472  1  0.754053  0.036232  0.479739  1
  O  O473  1  0.253688  0.036290  0.531576  1
  O  O474  1  0.246027  0.036251  0.479690  1
  O  O475  1  0.593377  0.074839  0.528273  1
  O  O476  1  0.906799  0.074945  0.483051  1
  O  O477  1  0.406860  0.074774  0.528309  1
  O  O478  1  0.093188  0.074942  0.482971  1
  O  O479  1  0.757097  0.181997  0.481506  1
  O  O480  1  0.757355  0.317960  0.529733  1
  O  O481  1  0.742740  0.181938  0.529859  1
  O  O482  1  0.742965  0.318104  0.481458  1
  O  O483  1  0.242675  0.318070  0.529834  1
  O  O484  1  0.242820  0.181905  0.481446  1
  O  O485  1  0.257178  0.318003  0.481546  1
  O  O486  1  0.257326  0.182064  0.529746  1
  O  O487  1  0.750139  0.140293  0.505663  1
  O  O488  1  0.249887  0.140216  0.505639  1
  O  O489  1  0.599509  0.147618  0.489085  1
  O  O490  1  0.900610  0.147677  0.522274  1
  O  O491  1  0.400549  0.147651  0.489076  1
  O  O492  1  0.099579  0.147617  0.522290  1
  O  O493  1  0.750173  0.249984  0.540279  1
  O  O494  1  0.750211  0.250067  0.471058  1
  O  O495  1  0.250219  0.249965  0.471073  1
  O  O496  1  0.250271  0.250067  0.540280  1
  O  O497  1  0.655275  0.197923  0.554965  1
  O  O498  1  0.656135  0.302273  0.456282  1
  O  O499  1  0.844012  0.197706  0.456354  1
  O  O500  1  0.844323  0.302419  0.554886  1
  O  O501  1  0.342982  0.302521  0.456266  1
  O  O502  1  0.343509  0.197519  0.554983  1
  O  O503  1  0.156306  0.302314  0.555065  1
  O  O504  1  0.156948  0.197697  0.456176  1
  O  O505  1  0.593526  0.222600  0.528755  1
  O  O506  1  0.593402  0.277738  0.482436  1
  O  O507  1  0.907010  0.222213  0.482428  1
  O  O508  1  0.906958  0.277430  0.528805  1
  O  O509  1  0.407625  0.278101  0.482188  1
  O  O510  1  0.407507  0.222245  0.529025  1
  O  O511  1  0.093008  0.277656  0.529002  1
  O  O512  1  0.092783  0.221966  0.482200  1
  O  O513  1  -0.000000  0.186193  0.441195  1
  O  O514  1  0.499820  0.313817  0.441233  1
  O  O515  1  0.372766  0.135747  0.570053  1
  O  O516  1  0.873203  0.135867  0.441346  1
  O  O517  1  0.899709  0.000000  0.522535  1
  O  O518  1  0.399701  -0.000000  0.488710  1
  O  O519  1  0.499932  0.107159  0.506885  1
  O  O520  1  -0.000000  0.107519  0.504362  1
  O  O521  1  0.500066  0.035241  0.508596  1
  O  O522  1  0.000000  0.035463  0.502718  1
  O  O523  1  0.500086  0.178641  0.510728  1
  O  O524  1  0.500146  0.320932  0.500788  1
  O  O525  1  0.000000  0.179179  0.500822  1
  O  O526  1  0.500057  0.084570  0.570050  1
  O  O527  1  0.626995  0.136072  0.570008  1
  O  O528  1  0.600456  -0.000000  0.488706  1
  O  O529  1  0.500068  0.464725  0.379730  1
  O  O530  1  -0.000000  0.535415  0.373859  1
  O  O531  1  -0.000000  0.464742  0.373749  1
  O  O532  1  0.500178  0.535353  0.379642  1
  O  O533  1  0.751189  0.608797  0.403353  1
  O  O534  1  0.251302  0.391017  0.350107  1
  O  O535  1  0.749114  0.608816  0.350151  1
  O  O536  1  0.249142  0.390975  0.403406  1
  O  O537  1  0.749215  0.390961  0.350109  1
  O  O538  1  0.249234  0.608834  0.403361  1
  O  O539  1  0.751167  0.390981  0.403380  1
  O  O540  1  0.251148  0.608781  0.350130  1
  O  O541  1  0.662943  0.575627  0.426094  1
  O  O542  1  0.162887  0.424679  0.327456  1
  O  O543  1  0.837358  0.575460  0.327418  1
  O  O544  1  0.337360  0.424786  0.426055  1
  O  O545  1  0.837230  0.424698  0.327434  1
  O  O546  1  0.337359  0.575400  0.426090  1
  O  O547  1  0.663058  0.424623  0.426056  1
  O  O548  1  0.162893  0.575599  0.327389  1
  O  O549  1  0.746724  0.535999  0.403065  1
  O  O550  1  0.246195  0.463720  0.350792  1
  O  O551  1  0.753464  0.535999  0.350465  1
  O  O552  1  0.253997  0.463701  0.402693  1
  O  O553  1  0.754051  0.463681  0.350803  1
  O  O554  1  0.253358  0.536019  0.403036  1
  O  O555  1  0.746293  0.463693  0.402717  1
  O  O556  1  0.246634  0.536005  0.350432  1
  O  O557  1  0.593441  0.574502  0.399437  1
  O  O558  1  0.093420  0.425033  0.354118  1
  O  O559  1  0.906770  0.574483  0.354071  1
  O  O560  1  0.406895  0.425078  0.399403  1
  O  O561  1  0.906978  0.425070  0.354073  1
  O  O562  1  0.406808  0.574432  0.399438  1
  O  O563  1  0.593366  0.425101  0.399410  1
  O  O564  1  0.093365  0.574535  0.354050  1
  O  O565  1  0.750038  0.640150  0.376764  1
  O  O566  1  0.250090  0.359833  0.376744  1
  O  O567  1  0.750136  0.359712  0.376754  1
  O  O568  1  0.249966  0.640100  0.376731  1
  O  O569  1  0.599471  0.647402  0.360187  1
  O  O570  1  0.099577  0.352354  0.393340  1
  O  O571  1  0.900630  0.647488  0.393327  1
  O  O572  1  0.400706  0.352309  0.360177  1
  O  O573  1  0.900614  0.352280  0.393343  1
  O  O574  1  0.400608  0.647426  0.360176  1
  O  O575  1  0.599658  0.352348  0.360156  1
  O  O576  1  0.099498  0.647372  0.393329  1
  O  O577  1  0.500188  0.392791  0.377981  1
  O  O578  1  0.873110  0.636107  0.312360  1
  O  O579  1  0.000000  0.607392  0.375342  1
  O  O580  1  0.600460  0.499871  0.359827  1
  O  O581  1  0.100417  0.499871  0.393656  1
  O  O582  1  0.899749  0.499921  0.393659  1
  O  O583  1  0.399739  0.499921  0.359825  1
  O  O584  1  0.750012  0.500985  0.376762  1
  O  O585  1  0.250086  0.501018  0.376741  1
  O  O586  1  0.500000  0.607289  0.378143  1
  O  O587  1  0.000000  0.392772  0.375528  1
  O  O588  1  0.127231  0.364002  0.312385  1
  O  O589  1  0.627215  0.363953  0.441136  1
  O  O590  1  -0.000000  0.415411  0.312307  1
  O  O591  1  0.000000  0.584788  0.312286  1
  O  O592  1  -0.000000  0.464787  0.508623  1
  O  O593  1  0.251151  0.608857  0.532274  1
  O  O594  1  0.751431  0.391071  0.479009  1
  O  O595  1  0.249005  0.608830  0.479028  1
  O  O596  1  0.749275  0.390989  0.532303  1
  O  O597  1  0.249098  0.391005  0.479006  1
  O  O598  1  0.749400  0.608875  0.532234  1
  O  O599  1  0.251064  0.391039  0.532310  1
  O  O600  1  0.751189  0.608854  0.479063  1
  O  O601  1  0.162785  0.575422  0.554960  1
  O  O602  1  0.663077  0.424552  0.456317  1
  O  O603  1  0.337457  0.575385  0.456337  1
  O  O604  1  0.837301  0.424814  0.554964  1
  O  O605  1  0.337364  0.424758  0.456332  1
  O  O606  1  0.837246  0.575551  0.554985  1
  O  O607  1  0.163007  0.424585  0.555001  1
  O  O608  1  0.662968  0.575636  0.456316  1
  O  O609  1  0.247085  0.536047  0.531930  1
  O  O610  1  0.745871  0.463763  0.479664  1
  O  O611  1  0.253767  0.536019  0.479435  1
  O  O612  1  0.753812  0.463729  0.531608  1
  O  O613  1  0.254201  0.463715  0.479697  1
  O  O614  1  0.753305  0.536059  0.531937  1
  O  O615  1  0.246412  0.463742  0.531700  1
  O  O616  1  0.746648  0.536042  0.479354  1
  O  O617  1  0.093592  0.574440  0.528287  1
  O  O618  1  0.593334  0.424921  0.482967  1
  O  O619  1  0.406843  0.574700  0.482997  1
  O  O620  1  0.906874  0.425214  0.528322  1
  O  O621  1  0.406954  0.425011  0.482981  1
  O  O622  1  0.906918  0.574365  0.528349  1
  O  O623  1  0.093358  0.425259  0.528345  1
  O  O624  1  0.593440  0.574570  0.482967  1
  O  O625  1  0.250221  0.640039  0.505653  1
  O  O626  1  0.749905  0.359837  0.505638  1
  O  O627  1  0.250224  0.359840  0.505673  1
  O  O628  1  0.750048  0.640305  0.505643  1
  O  O629  1  0.099489  0.647435  0.489109  1
  O  O630  1  0.599578  0.352401  0.522280  1
  O  O631  1  0.400795  0.647465  0.522228  1
  O  O632  1  0.900691  0.352364  0.489113  1
  O  O633  1  0.400604  0.352360  0.522290  1
  O  O634  1  0.900641  0.647516  0.489094  1
  O  O635  1  0.099590  0.352415  0.489107  1
  O  O636  1  0.599722  0.647504  0.522260  1
  O  O637  1  0.626993  0.636272  0.441225  1
  O  O638  1  0.499980  0.535282  0.502694  1
  O  O639  1  0.500284  0.464565  0.502650  1
  O  O640  1  0.372911  0.635976  0.441204  1
  O  O641  1  0.872889  0.364162  0.570038  1
  O  O642  1  0.500197  0.584779  0.441204  1
  O  O643  1  -0.000000  0.535365  0.508492  1
  O  O644  1  0.500258  0.415423  0.441190  1
  O  O645  1  -0.000000  0.392901  0.506916  1
  O  O646  1  0.100462  0.499865  0.488686  1
  O  O647  1  0.600408  0.499912  0.522523  1
  O  O648  1  0.399802  0.499819  0.522511  1
  O  O649  1  0.899673  0.499833  0.488690  1
  O  O650  1  0.249475  0.500807  0.505702  1
  O  O651  1  0.750241  0.500998  0.505645  1
  O  O652  1  0.000000  0.607265  0.507038  1
  O  O653  1  0.500042  0.392550  0.504377  1
  O  O654  1  0.500442  0.607288  0.504320  1
  O  O655  1  0.127218  0.636142  0.569963  1
  O  O656  1  0.372973  0.364207  0.441189  1
  O  O657  1  0.003619  0.750317  0.376589  1
  O  O658  1  0.497088  0.750029  0.376754  1
  O  O659  1  0.751140  0.891081  0.350148  1
  O  O660  1  0.749212  0.891038  0.403317  1
  O  O661  1  0.249045  0.891109  0.350124  1
  O  O662  1  0.251219  0.891135  0.403368  1
  O  O663  1  0.663045  0.924538  0.327473  1
  O  O664  1  0.837188  0.924725  0.425982  1
  O  O665  1  0.337458  0.924567  0.327417  1
  O  O666  1  0.162822  0.924391  0.426087  1
  O  O667  1  0.746083  0.963785  0.350800  1
  O  O668  1  0.753928  0.963777  0.402642  1
  O  O669  1  0.253419  0.963951  0.350458  1
  O  O670  1  0.246765  0.963957  0.403067  1
  O  O671  1  0.593155  0.925127  0.354096  1
  O  O672  1  0.907016  0.925216  0.399368  1
  O  O673  1  0.406593  0.925450  0.354092  1
  O  O674  1  0.093607  0.925463  0.399403  1
  O  O675  1  0.757038  0.681853  0.352620  1
  O  O676  1  0.757065  0.817984  0.400863  1
  O  O677  1  0.742818  0.681792  0.400949  1
  O  O678  1  0.742952  0.818080  0.352517  1
  O  O679  1  0.242575  0.818135  0.400937  1
  O  O680  1  0.242886  0.681766  0.352541  1
  O  O681  1  0.257345  0.818073  0.352624  1
  O  O682  1  0.257084  0.681871  0.400854  1
  O  O683  1  0.749963  0.859680  0.376720  1
  O  O684  1  0.250035  0.859827  0.376759  1
  O  O685  1  0.599449  0.852464  0.393315  1
  O  O686  1  0.900667  0.852427  0.360175  1
  O  O687  1  0.400517  0.852356  0.393339  1
  O  O688  1  0.099592  0.852419  0.360163  1
  O  O689  1  0.750014  0.749906  0.411297  1
  O  O690  1  0.750029  0.749952  0.342196  1
  O  O691  1  0.249992  0.749944  0.342250  1
  O  O692  1  0.250031  0.750001  0.411258  1
  O  O693  1  0.655485  0.697889  0.426054  1
  O  O694  1  0.655591  0.801959  0.327413  1
  O  O695  1  0.844398  0.697752  0.327533  1
  O  O696  1  0.844839  0.802070  0.425910  1
  O  O697  1  0.342941  0.802278  0.327355  1
  O  O698  1  0.342892  0.697593  0.426107  1
  O  O699  1  0.156910  0.802182  0.426219  1
  O  O700  1  0.157550  0.697716  0.327225  1
  O  O701  1  0.593448  0.722402  0.399838  1
  O  O702  1  0.593530  0.777533  0.353647  1
  O  O703  1  0.906562  0.722382  0.353691  1
  O  O704  1  0.906455  0.777343  0.399719  1
  O  O705  1  0.407606  0.777996  0.353287  1
  O  O706  1  0.407490  0.721919  0.400181  1
  O  O707  1  0.092451  0.777984  0.400227  1
  O  O708  1  0.092433  0.721711  0.353189  1
  O  O709  1  -0.000000  0.686408  0.312314  1
  O  O710  1  0.500032  0.678837  0.381699  1
  O  O711  1  -0.000000  0.964798  0.379683  1
  O  O712  1  -0.000000  0.821331  0.381780  1
  O  O713  1  -0.000000  0.678977  0.371853  1
  O  O714  1  0.500024  0.821187  0.371759  1
  O  O715  1  0.249961  0.998926  0.376759  1
  O  O716  1  0.499647  0.892740  0.375453  1
  O  O717  1  0.000000  0.892851  0.378012  1
  O  O718  1  0.500406  0.964723  0.373799  1
  O  O719  1  0.500381  0.915228  0.312328  1
  O  O720  1  0.000000  0.915225  0.441142  1
  O  O721  1  0.627217  0.863778  0.312366  1
  O  O722  1  0.872879  0.863934  0.440981  1
  O  O723  1  0.373044  0.864006  0.312321  1
  O  O724  1  0.500497  0.821235  0.510642  1
  O  O725  1  0.500519  0.678876  0.500728  1
  O  O726  1  0.497475  0.750155  0.505571  1
  O  O727  1  0.251277  0.891177  0.479005  1
  O  O728  1  0.249072  0.891149  0.532288  1
  O  O729  1  0.749214  0.891143  0.479026  1
  O  O730  1  0.750931  0.891122  0.532251  1
  O  O731  1  0.162514  0.924522  0.456312  1
  O  O732  1  0.337601  0.924575  0.554984  1
  O  O733  1  0.837064  0.924388  0.456239  1
  O  O734  1  0.663136  0.924365  0.555033  1
  O  O735  1  0.246600  0.963976  0.479341  1
  O  O736  1  0.253397  0.963969  0.531949  1
  O  O737  1  0.753607  0.963926  0.479317  1
  O  O738  1  0.746824  0.963903  0.531977  1
  O  O739  1  0.093530  0.925367  0.483000  1
  O  O740  1  0.406669  0.925472  0.528308  1
  O  O741  1  0.906969  0.925440  0.482879  1
  O  O742  1  0.593289  0.925556  0.528392  1
  O  O743  1  0.257149  0.681887  0.481553  1
  O  O744  1  0.257144  0.818120  0.529725  1
  O  O745  1  0.243017  0.681882  0.529752  1
  O  O746  1  0.243111  0.818184  0.481524  1
  O  O747  1  0.742847  0.818136  0.529829  1
  O  O748  1  0.743041  0.681860  0.481420  1
  O  O749  1  0.757235  0.818134  0.481459  1
  O  O750  1  0.757444  0.681915  0.529832  1
  O  O751  1  0.250015  0.860018  0.505641  1
  O  O752  1  0.750132  0.859798  0.505642  1
  O  O753  1  0.099412  0.852613  0.522214  1
  O  O754  1  0.400775  0.852581  0.489108  1
  O  O755  1  0.900544  0.852512  0.522230  1
  O  O756  1  0.599624  0.852562  0.489070  1
  O  O757  1  0.250683  0.749975  0.540142  1
  O  O758  1  0.250723  0.750071  0.471179  1
  O  O759  1  0.750733  0.749979  0.471092  1
  O  O760  1  0.750622  0.750072  0.540217  1
  O  O761  1  0.155533  0.697923  0.554804  1
  O  O762  1  0.155905  0.802128  0.456438  1
  O  O763  1  0.342864  0.697579  0.456289  1
  O  O764  1  0.343161  0.802490  0.554974  1
  O  O765  1  0.842646  0.802457  0.456131  1
  O  O766  1  0.843246  0.697726  0.555112  1
  O  O767  1  0.655776  0.802126  0.554952  1
  O  O768  1  0.655834  0.698046  0.456316  1
  O  O769  1  0.093904  0.722679  0.528617  1
  O  O770  1  0.093852  0.777550  0.482612  1
  O  O771  1  0.407936  0.721769  0.482210  1
  O  O772  1  0.407779  0.778101  0.529042  1
  O  O773  1  0.907991  0.778326  0.482069  1
  O  O774  1  0.907884  0.721961  0.529143  1
  O  O775  1  0.593760  0.777442  0.528757  1
  O  O776  1  0.593862  0.722455  0.482531  1
  O  O777  1  -0.000000  0.821126  0.500716  1
  O  O778  1  -0.000000  0.678779  0.510660  1
  O  O779  1  0.500125  0.964645  0.508550  1
  O  O780  1  -0.000000  0.964729  0.502667  1
  O  O781  1  0.500388  0.892746  0.507036  1
  O  O782  1  -0.000000  0.892725  0.504275  1
  O  O783  1  0.996465  0.749836  0.505534  1
  O  O784  1  0.749891  0.998808  0.505656  1
  O  O785  1  0.250126  0.998947  0.505643  1
  O  O786  1  0.499589  0.686415  0.441218  1
  O  O787  1  -0.000000  0.813620  0.441239  1
  O  O788  1  0.127045  0.863845  0.441270  1
  O  O789  1  0.100328  0.000000  0.522535  1
  O  O790  1  0.499731  0.813624  0.570087  1
  O  O791  1  0.399757  0.000000  0.651451  1
  O  O792  1  0.600435  0.000000  0.651448  1
  O  O793  1  0.100435  0.000000  0.617621  1
  O  O794  1  0.497566  0.250324  0.634387  1
  O  O795  1  0.996790  0.250151  0.634592  1
  O  O796  1  0.251073  0.108936  0.661199  1
  O  O797  1  0.249325  0.108955  0.607893  1
  O  O798  1  0.749296  0.108918  0.661200  1
  O  O799  1  0.751218  0.108879  0.607893  1
  O  O800  1  0.162952  0.075254  0.683860  1
  O  O801  1  0.337336  0.075175  0.585229  1
  O  O802  1  0.837338  0.075443  0.683947  1
  O  O803  1  0.662895  0.075557  0.585151  1
  O  O804  1  0.246201  0.036237  0.660509  1
  O  O805  1  0.254154  0.036247  0.608609  1
  O  O806  1  0.753472  0.036084  0.660871  1
  O  O807  1  0.746693  0.036064  0.608193  1
  O  O808  1  0.093211  0.074844  0.657220  1
  O  O809  1  0.407149  0.074875  0.611857  1
  O  O810  1  0.906745  0.074498  0.657280  1
  O  O811  1  0.593603  0.074576  0.611832  1
  O  O812  1  0.257024  0.181971  0.610468  1
  O  O813  1  0.257383  0.317953  0.658646  1
  O  O814  1  0.243203  0.181929  0.658669  1
  O  O815  1  0.242885  0.318036  0.610402  1
  O  O816  1  0.742824  0.317991  0.658735  1
  O  O817  1  0.742882  0.181858  0.610366  1
  O  O818  1  0.757345  0.317942  0.610406  1
  O  O819  1  0.757434  0.181938  0.658661  1
  O  O820  1  0.250146  0.140050  0.634556  1
  O  O821  1  0.750099  0.140102  0.634536  1
  O  O822  1  0.099497  0.147383  0.617977  1
  O  O823  1  0.400814  0.147443  0.651124  1
  O  O824  1  0.900601  0.147572  0.617957  1
  O  O825  1  0.599724  0.147516  0.651151  1
  O  O826  1  0.250671  0.249921  0.669147  1
  O  O827  1  0.250738  0.250029  0.599976  1
  O  O828  1  0.750673  0.249880  0.599935  1
  O  O829  1  0.750736  0.249982  0.669169  1
  O  O830  1  0.155739  0.197691  0.683762  1
  O  O831  1  0.155677  0.302127  0.585294  1
  O  O832  1  0.342762  0.197341  0.585167  1
  O  O833  1  0.343520  0.302516  0.683898  1
  O  O834  1  0.842966  0.302469  0.585091  1
  O  O835  1  0.843168  0.197348  0.683968  1
  O  O836  1  0.655538  0.302070  0.683846  1
  O  O837  1  0.656010  0.197730  0.585212  1
  O  O838  1  0.093930  0.222554  0.657597  1
  O  O839  1  0.093821  0.277353  0.611483  1
  O  O840  1  0.407876  0.221764  0.611070  1
  O  O841  1  0.407843  0.277897  0.657961  1
  O  O842  1  0.907936  0.278058  0.611022  1
  O  O843  1  0.908034  0.221855  0.658068  1
  O  O844  1  0.593822  0.277282  0.657649  1
  O  O845  1  0.593700  0.222414  0.611374  1
  O  O846  1  0.499620  0.186169  0.570162  1
  O  O847  1  0.127337  0.135945  0.698936  1
  O  O848  1  0.500453  0.321280  0.639603  1
  O  O849  1  0.500445  0.178988  0.629646  1
  O  O850  1  0.899706  0.000000  0.617617  1
  O  O851  1  0.750065  0.001222  0.634530  1
  O  O852  1  0.000000  0.107392  0.635925  1
  O  O853  1  0.500608  0.107402  0.633180  1
  O  O854  1  0.000000  0.035443  0.637462  1
  O  O855  1  0.499827  0.035413  0.631601  1
  O  O856  1  -0.000000  0.178941  0.639480  1
  O  O857  1  0.000000  0.321233  0.629530  1
  O  O858  1  -0.000000  0.313846  0.570131  1
  O  O859  1  -0.000000  0.084558  0.699037  1
  O  O860  1  0.001645  0.250706  0.763164  1
  O  O861  1  0.497942  0.249504  0.763222  1
  O  O862  1  -0.000000  0.321454  0.768596  1
  O  O863  1  0.751192  0.108933  0.790063  1
  O  O864  1  0.748995  0.108965  0.736840  1
  O  O865  1  0.249275  0.109023  0.790097  1
  O  O866  1  0.251171  0.108936  0.736824  1
  O  O867  1  0.662906  0.075358  0.812717  1
  O  O868  1  0.837467  0.075199  0.714203  1
  O  O869  1  0.337131  0.075142  0.812750  1
  O  O870  1  0.163157  0.075373  0.714133  1
  O  O871  1  0.746221  0.036207  0.789394  1
  O  O872  1  0.754053  0.036232  0.737543  1
  O  O873  1  0.253688  0.036290  0.789380  1
  O  O874  1  0.246027  0.036251  0.737494  1
  O  O875  1  0.593377  0.074839  0.786076  1
  O  O876  1  0.906799  0.074945  0.740854  1
  O  O877  1  0.406860  0.074774  0.786112  1
  O  O878  1  0.093188  0.074942  0.740774  1
  O  O879  1  0.757097  0.181997  0.739309  1
  O  O880  1  0.757355  0.317960  0.787537  1
  O  O881  1  0.742740  0.181938  0.787662  1
  O  O882  1  0.742965  0.318104  0.739261  1
  O  O883  1  0.242675  0.318070  0.787637  1
  O  O884  1  0.242820  0.181905  0.739249  1
  O  O885  1  0.257178  0.318003  0.739349  1
  O  O886  1  0.257326  0.182064  0.787549  1
  O  O887  1  0.750139  0.140293  0.763466  1
  O  O888  1  0.249887  0.140216  0.763442  1
  O  O889  1  0.599509  0.147618  0.746888  1
  O  O890  1  0.900610  0.147677  0.780077  1
  O  O891  1  0.400549  0.147651  0.746879  1
  O  O892  1  0.099579  0.147617  0.780093  1
  O  O893  1  0.750173  0.249984  0.798082  1
  O  O894  1  0.750211  0.250067  0.728861  1
  O  O895  1  0.250219  0.249965  0.728876  1
  O  O896  1  0.250271  0.250067  0.798083  1
  O  O897  1  0.655275  0.197923  0.812768  1
  O  O898  1  0.656135  0.302273  0.714085  1
  O  O899  1  0.844012  0.197706  0.714157  1
  O  O900  1  0.844323  0.302419  0.812690  1
  O  O901  1  0.342982  0.302521  0.714069  1
  O  O902  1  0.343509  0.197519  0.812786  1
  O  O903  1  0.156306  0.302314  0.812868  1
  O  O904  1  0.156948  0.197697  0.713980  1
  O  O905  1  0.593526  0.222600  0.786558  1
  O  O906  1  0.593402  0.277738  0.740239  1
  O  O907  1  0.907010  0.222213  0.740231  1
  O  O908  1  0.906958  0.277430  0.786608  1
  O  O909  1  0.407625  0.278101  0.739991  1
  O  O910  1  0.407507  0.222245  0.786829  1
  O  O911  1  0.093008  0.277656  0.786805  1
  O  O912  1  0.092783  0.221966  0.740004  1
  O  O913  1  0.000000  0.186193  0.698998  1
  O  O914  1  0.499820  0.313817  0.699037  1
  O  O915  1  0.873203  0.135867  0.699149  1
  O  O916  1  0.899709  0.000000  0.780338  1
  O  O917  1  0.399701  0.000000  0.746513  1
  O  O918  1  0.499932  0.107159  0.764688  1
  O  O919  1  0.000000  0.107519  0.762166  1
  O  O920  1  0.500066  0.035241  0.766399  1
  O  O921  1  0.000000  0.035463  0.760522  1
  O  O922  1  0.500086  0.178641  0.768532  1
  O  O923  1  0.500146  0.320932  0.758591  1
  O  O924  1  -0.000000  0.179179  0.758625  1
  O  O925  1  0.600456  0.000000  0.746509  1
  O  O926  1  0.500068  0.464725  0.637533  1
  O  O927  1  0.000000  0.535415  0.631662  1
  O  O928  1  -0.000000  0.464742  0.631552  1
  O  O929  1  0.500178  0.535353  0.637445  1
  O  O930  1  0.751189  0.608797  0.661156  1
  O  O931  1  0.251302  0.391017  0.607910  1
  O  O932  1  0.749114  0.608816  0.607954  1
  O  O933  1  0.249142  0.390975  0.661209  1
  O  O934  1  0.749215  0.390961  0.607912  1
  O  O935  1  0.249234  0.608834  0.661164  1
  O  O936  1  0.751167  0.390981  0.661183  1
  O  O937  1  0.251148  0.608781  0.607934  1
  O  O938  1  0.662943  0.575627  0.683897  1
  O  O939  1  0.162887  0.424679  0.585259  1
  O  O940  1  0.837358  0.575460  0.585221  1
  O  O941  1  0.337360  0.424786  0.683858  1
  O  O942  1  0.837230  0.424698  0.585237  1
  O  O943  1  0.337359  0.575400  0.683893  1
  O  O944  1  0.663058  0.424623  0.683859  1
  O  O945  1  0.162893  0.575599  0.585192  1
  O  O946  1  0.746724  0.535999  0.660868  1
  O  O947  1  0.246195  0.463720  0.608595  1
  O  O948  1  0.753464  0.535999  0.608268  1
  O  O949  1  0.253997  0.463701  0.660497  1
  O  O950  1  0.754051  0.463681  0.608606  1
  O  O951  1  0.253358  0.536019  0.660839  1
  O  O952  1  0.746293  0.463693  0.660520  1
  O  O953  1  0.246634  0.536005  0.608235  1
  O  O954  1  0.593441  0.574502  0.657240  1
  O  O955  1  0.093420  0.425033  0.611922  1
  O  O956  1  0.906770  0.574483  0.611874  1
  O  O957  1  0.406895  0.425078  0.657206  1
  O  O958  1  0.906978  0.425070  0.611876  1
  O  O959  1  0.406808  0.574432  0.657241  1
  O  O960  1  0.593366  0.425101  0.657213  1
  O  O961  1  0.093365  0.574535  0.611853  1
  O  O962  1  0.750038  0.640150  0.634567  1
  O  O963  1  0.250090  0.359833  0.634547  1
  O  O964  1  0.750136  0.359712  0.634557  1
  O  O965  1  0.249966  0.640100  0.634534  1
  O  O966  1  0.599471  0.647402  0.617990  1
  O  O967  1  0.099577  0.352354  0.651143  1
  O  O968  1  0.900630  0.647488  0.651130  1
  O  O969  1  0.400706  0.352309  0.617980  1
  O  O970  1  0.900614  0.352280  0.651146  1
  O  O971  1  0.400608  0.647426  0.617979  1
  O  O972  1  0.599658  0.352348  0.617959  1
  O  O973  1  0.099498  0.647372  0.651132  1
  O  O974  1  0.500188  0.392791  0.635784  1
  O  O975  1  0.873110  0.636107  0.570163  1
  O  O976  1  -0.000000  0.607392  0.633145  1
  O  O977  1  0.600460  0.499871  0.617630  1
  O  O978  1  0.100417  0.499871  0.651459  1
  O  O979  1  0.899749  0.499921  0.651462  1
  O  O980  1  0.399739  0.499921  0.617629  1
  O  O981  1  0.750012  0.500985  0.634565  1
  O  O982  1  0.250086  0.501018  0.634544  1
  O  O983  1  0.500000  0.607289  0.635946  1
  O  O984  1  0.000000  0.392772  0.633331  1
  O  O985  1  0.127231  0.364002  0.570188  1
  O  O986  1  0.627215  0.363953  0.698939  1
  O  O987  1  -0.000000  0.415411  0.570111  1
  O  O988  1  -0.000000  0.584788  0.570089  1
  O  O989  1  -0.000000  0.464787  0.766426  1
  O  O990  1  0.251151  0.608857  0.790077  1
  O  O991  1  0.751431  0.391071  0.736812  1
  O  O992  1  0.249005  0.608830  0.736832  1
  O  O993  1  0.749275  0.390989  0.790107  1
  O  O994  1  0.249098  0.391005  0.736809  1
  O  O995  1  0.749400  0.608875  0.790037  1
  O  O996  1  0.251064  0.391039  0.790113  1
  O  O997  1  0.751189  0.608854  0.736867  1
  O  O998  1  0.162785  0.575422  0.812764  1
  O  O999  1  0.663077  0.424552  0.714120  1
  O  O1000  1  0.337457  0.575385  0.714140  1
  O  O1001  1  0.837301  0.424814  0.812767  1
  O  O1002  1  0.337364  0.424758  0.714136  1
  O  O1003  1  0.837246  0.575551  0.812789  1
  O  O1004  1  0.163007  0.424585  0.812804  1
  O  O1005  1  0.662968  0.575636  0.714119  1
  O  O1006  1  0.247085  0.536047  0.789733  1
  O  O1007  1  0.745871  0.463763  0.737468  1
  O  O1008  1  0.253767  0.536019  0.737238  1
  O  O1009  1  0.753812  0.463729  0.789411  1
  O  O1010  1  0.254201  0.463715  0.737500  1
  O  O1011  1  0.753305  0.536059  0.789740  1
  O  O1012  1  0.246412  0.463742  0.789503  1
  O  O1013  1  0.746648  0.536042  0.737157  1
  O  O1014  1  0.093592  0.574440  0.786090  1
  O  O1015  1  0.593334  0.424921  0.740770  1
  O  O1016  1  0.406843  0.574700  0.740800  1
  O  O1017  1  0.906874  0.425214  0.786126  1
  O  O1018  1  0.406954  0.425011  0.740784  1
  O  O1019  1  0.906918  0.574365  0.786153  1
  O  O1020  1  0.093358  0.425259  0.786148  1
  O  O1021  1  0.593440  0.574570  0.740770  1
  O  O1022  1  0.250221  0.640039  0.763456  1
  O  O1023  1  0.749905  0.359837  0.763441  1
  O  O1024  1  0.250224  0.359840  0.763476  1
  O  O1025  1  0.750048  0.640305  0.763446  1
  O  O1026  1  0.099489  0.647435  0.746912  1
  O  O1027  1  0.599578  0.352401  0.780083  1
  O  O1028  1  0.400795  0.647465  0.780031  1
  O  O1029  1  0.900691  0.352364  0.746917  1
  O  O1030  1  0.400604  0.352360  0.780093  1
  O  O1031  1  0.900641  0.647516  0.746897  1
  O  O1032  1  0.099590  0.352415  0.746911  1
  O  O1033  1  0.599722  0.647504  0.780063  1
  O  O1034  1  0.626993  0.636272  0.699028  1
  O  O1035  1  0.499980  0.535282  0.760498  1
  O  O1036  1  0.500284  0.464565  0.760453  1
  O  O1037  1  0.372911  0.635976  0.699007  1
  O  O1038  1  0.500197  0.584779  0.699007  1
  O  O1039  1  -0.000000  0.535365  0.766295  1
  O  O1040  1  0.500258  0.415423  0.698994  1
  O  O1041  1  0.000000  0.392901  0.764719  1
  O  O1042  1  0.100462  0.499865  0.746490  1
  O  O1043  1  0.600408  0.499912  0.780326  1
  O  O1044  1  0.399802  0.499819  0.780314  1
  O  O1045  1  0.899673  0.499833  0.746493  1
  O  O1046  1  0.249475  0.500807  0.763505  1
  O  O1047  1  0.750241  0.500998  0.763448  1
  O  O1048  1  -0.000000  0.607265  0.764841  1
  O  O1049  1  0.500042  0.392550  0.762180  1
  O  O1050  1  0.500442  0.607288  0.762123  1
  O  O1051  1  0.372973  0.364207  0.698992  1
  O  O1052  1  0.003619  0.750317  0.634392  1
  O  O1053  1  0.497088  0.750029  0.634557  1
  O  O1054  1  0.751140  0.891081  0.607951  1
  O  O1055  1  0.749212  0.891038  0.661120  1
  O  O1056  1  0.249045  0.891109  0.607927  1
  O  O1057  1  0.251219  0.891135  0.661171  1
  O  O1058  1  0.663045  0.924538  0.585276  1
  O  O1059  1  0.837188  0.924725  0.683785  1
  O  O1060  1  0.337458  0.924567  0.585220  1
  O  O1061  1  0.162822  0.924391  0.683890  1
  O  O1062  1  0.746083  0.963785  0.608603  1
  O  O1063  1  0.753928  0.963777  0.660445  1
  O  O1064  1  0.253419  0.963951  0.608261  1
  O  O1065  1  0.246765  0.963957  0.660870  1
  O  O1066  1  0.593155  0.925127  0.611899  1
  O  O1067  1  0.907016  0.925216  0.657171  1
  O  O1068  1  0.406593  0.925450  0.611895  1
  O  O1069  1  0.093607  0.925463  0.657206  1
  O  O1070  1  0.757038  0.681853  0.610423  1
  O  O1071  1  0.757065  0.817984  0.658666  1
  O  O1072  1  0.742818  0.681792  0.658753  1
  O  O1073  1  0.742952  0.818080  0.610320  1
  O  O1074  1  0.242575  0.818135  0.658740  1
  O  O1075  1  0.242886  0.681766  0.610344  1
  O  O1076  1  0.257345  0.818073  0.610428  1
  O  O1077  1  0.257084  0.681871  0.658657  1
  O  O1078  1  0.749963  0.859680  0.634523  1
  O  O1079  1  0.250035  0.859827  0.634563  1
  O  O1080  1  0.599449  0.852464  0.651118  1
  O  O1081  1  0.900667  0.852427  0.617978  1
  O  O1082  1  0.400517  0.852356  0.651142  1
  O  O1083  1  0.099592  0.852419  0.617966  1
  O  O1084  1  0.750014  0.749906  0.669100  1
  O  O1085  1  0.750029  0.749952  0.599999  1
  O  O1086  1  0.249992  0.749944  0.600053  1
  O  O1087  1  0.250031  0.750001  0.669061  1
  O  O1088  1  0.655485  0.697889  0.683857  1
  O  O1089  1  0.655591  0.801959  0.585216  1
  O  O1090  1  0.844398  0.697752  0.585336  1
  O  O1091  1  0.844839  0.802070  0.683714  1
  O  O1092  1  0.342941  0.802278  0.585158  1
  O  O1093  1  0.342892  0.697593  0.683910  1
  O  O1094  1  0.156910  0.802182  0.684022  1
  O  O1095  1  0.157550  0.697716  0.585028  1
  O  O1096  1  0.593448  0.722402  0.657641  1
  O  O1097  1  0.593530  0.777533  0.611451  1
  O  O1098  1  0.906562  0.722382  0.611494  1
  O  O1099  1  0.906455  0.777343  0.657522  1
  O  O1100  1  0.407606  0.777996  0.611090  1
  O  O1101  1  0.407490  0.721919  0.657985  1
  O  O1102  1  0.092451  0.777984  0.658030  1
  O  O1103  1  0.092433  0.721711  0.610992  1
  O  O1104  1  -0.000000  0.686408  0.570117  1
  O  O1105  1  0.500032  0.678837  0.639502  1
  O  O1106  1  0.000000  0.964798  0.637486  1
  O  O1107  1  0.000000  0.821331  0.639583  1
  O  O1108  1  -0.000000  0.678977  0.629656  1
  O  O1109  1  0.500024  0.821187  0.629562  1
  O  O1110  1  0.249961  0.998926  0.634562  1
  O  O1111  1  0.499647  0.892740  0.633256  1
  O  O1112  1  0.000000  0.892851  0.635815  1
  O  O1113  1  0.500406  0.964723  0.631602  1
  O  O1114  1  0.500381  0.915228  0.570131  1
  O  O1115  1  -0.000000  0.915225  0.698945  1
  O  O1116  1  0.627217  0.863778  0.570169  1
  O  O1117  1  0.872879  0.863934  0.698784  1
  O  O1118  1  0.373044  0.864006  0.570124  1
  O  O1119  1  0.500497  0.821235  0.768445  1
  O  O1120  1  0.500519  0.678876  0.758532  1
  O  O1121  1  0.497475  0.750155  0.763374  1
  O  O1122  1  0.251277  0.891177  0.736809  1
  O  O1123  1  0.249072  0.891149  0.790091  1
  O  O1124  1  0.749214  0.891143  0.736829  1
  O  O1125  1  0.750931  0.891122  0.790054  1
  O  O1126  1  0.162514  0.924522  0.714115  1
  O  O1127  1  0.337601  0.924575  0.812787  1
  O  O1128  1  0.837064  0.924388  0.714042  1
  O  O1129  1  0.663136  0.924365  0.812837  1
  O  O1130  1  0.246600  0.963976  0.737145  1
  O  O1131  1  0.253397  0.963969  0.789752  1
  O  O1132  1  0.753607  0.963926  0.737120  1
  O  O1133  1  0.746824  0.963903  0.789780  1
  O  O1134  1  0.093530  0.925367  0.740803  1
  O  O1135  1  0.406669  0.925472  0.786111  1
  O  O1136  1  0.906969  0.925440  0.740682  1
  O  O1137  1  0.593289  0.925556  0.786195  1
  O  O1138  1  0.257149  0.681887  0.739356  1
  O  O1139  1  0.257144  0.818120  0.787528  1
  O  O1140  1  0.243017  0.681882  0.787556  1
  O  O1141  1  0.243111  0.818184  0.739327  1
  O  O1142  1  0.742847  0.818136  0.787632  1
  O  O1143  1  0.743041  0.681860  0.739223  1
  O  O1144  1  0.757235  0.818134  0.739262  1
  O  O1145  1  0.757444  0.681915  0.787635  1
  O  O1146  1  0.250015  0.860018  0.763444  1
  O  O1147  1  0.750132  0.859798  0.763445  1
  O  O1148  1  0.099412  0.852613  0.780017  1
  O  O1149  1  0.400775  0.852581  0.746911  1
  O  O1150  1  0.900544  0.852512  0.780033  1
  O  O1151  1  0.599624  0.852562  0.746873  1
  O  O1152  1  0.250683  0.749975  0.797946  1
  O  O1153  1  0.250723  0.750071  0.728982  1
  O  O1154  1  0.750733  0.749979  0.728895  1
  O  O1155  1  0.750622  0.750072  0.798021  1
  O  O1156  1  0.155533  0.697923  0.812607  1
  O  O1157  1  0.155905  0.802128  0.714241  1
  O  O1158  1  0.342864  0.697579  0.714092  1
  O  O1159  1  0.343161  0.802490  0.812777  1
  O  O1160  1  0.842646  0.802457  0.713934  1
  O  O1161  1  0.843246  0.697726  0.812915  1
  O  O1162  1  0.655776  0.802126  0.812755  1
  O  O1163  1  0.655834  0.698046  0.714119  1
  O  O1164  1  0.093904  0.722679  0.786420  1
  O  O1165  1  0.093852  0.777550  0.740415  1
  O  O1166  1  0.407936  0.721769  0.740013  1
  O  O1167  1  0.407779  0.778101  0.786845  1
  O  O1168  1  0.907991  0.778326  0.739872  1
  O  O1169  1  0.907884  0.721961  0.786946  1
  O  O1170  1  0.593760  0.777442  0.786560  1
  O  O1171  1  0.593862  0.722455  0.740334  1
  O  O1172  1  -0.000000  0.821126  0.758519  1
  O  O1173  1  -0.000000  0.678779  0.768463  1
  O  O1174  1  0.500125  0.964645  0.766353  1
  O  O1175  1  0.000000  0.964729  0.760470  1
  O  O1176  1  0.500388  0.892746  0.764840  1
  O  O1177  1  0.000000  0.892725  0.762078  1
  O  O1178  1  0.996465  0.749836  0.763337  1
  O  O1179  1  0.749891  0.998808  0.763459  1
  O  O1180  1  0.250126  0.998947  0.763446  1
  O  O1181  1  0.499589  0.686415  0.699021  1
  O  O1182  1  0.000000  0.813620  0.699042  1
  O  O1183  1  0.127045  0.863845  0.699073  1
  O  O1184  1  0.100328  0.000000  0.780338  1
  Si  Si1185  1  0.191929  0.072817  0.150420  1
  Si  Si1186  1  0.308391  0.072814  0.087459  1
  Si  Si1187  1  0.808151  0.072818  0.150531  1
  Si  Si1188  1  0.692125  0.072842  0.087347  1
  Si  Si1189  1  0.213764  0.144579  0.101658  1
  Si  Si1190  1  0.286553  0.144597  0.136240  1
  Si  Si1191  1  0.786350  0.144605  0.101628  1
  Si  Si1192  1  0.714002  0.144602  0.136240  1
  Si  Si1193  1  0.186633  0.213704  0.151874  1
  Si  Si1194  1  0.186523  0.286206  0.085990  1
  Si  Si1195  1  0.313694  0.213494  0.085906  1
  Si  Si1196  1  0.313953  0.286365  0.151970  1
  Si  Si1197  1  0.813813  0.286375  0.085840  1
  Si  Si1198  1  0.813899  0.213495  0.152023  1
  Si  Si1199  1  0.686491  0.286157  0.151939  1
  Si  Si1200  1  0.686591  0.213657  0.085923  1
  Si  Si1201  1  0.112153  0.179824  0.183308  1
  Si  Si1202  1  0.785017  0.000000  0.101442  1
  Si  Si1203  1  -0.000000  0.072655  0.131501  1
  Si  Si1204  1  0.500399  0.072679  0.106382  1
  Si  Si1205  1  -0.000000  0.146116  0.111470  1
  Si  Si1206  1  0.500309  0.146126  0.126423  1
  Si  Si1207  1  -0.000000  0.218829  0.131857  1
  Si  Si1208  1  0.000000  0.281234  0.106013  1
  Si  Si1209  1  0.500176  0.218793  0.105996  1
  Si  Si1210  1  0.500210  0.281197  0.131843  1
  Si  Si1211  1  -0.000000  -0.000000  0.110922  1
  Si  Si1212  1  0.500089  -0.000000  0.126929  1
  Si  Si1213  1  0.715124  0.000000  0.136406  1
  Si  Si1214  1  0.611867  0.320080  0.183361  1
  Si  Si1215  1  0.692049  0.072825  0.279289  1
  Si  Si1216  1  0.808183  0.072840  0.216420  1
  Si  Si1217  1  0.308113  0.072821  0.279308  1
  Si  Si1218  1  0.191925  0.072867  0.216366  1
  Si  Si1219  1  0.713754  0.144706  0.230563  1
  Si  Si1220  1  0.786352  0.144729  0.265167  1
  Si  Si1221  1  0.286310  0.144689  0.230542  1
  Si  Si1222  1  0.213861  0.144714  0.265152  1
  Si  Si1223  1  0.686188  0.213749  0.280847  1
  Si  Si1224  1  0.686432  0.286375  0.214813  1
  Si  Si1225  1  0.813724  0.213702  0.214862  1
  Si  Si1226  1  0.813908  0.286273  0.280802  1
  Si  Si1227  1  0.313570  0.286401  0.214799  1
  Si  Si1228  1  0.313763  0.213689  0.280871  1
  Si  Si1229  1  0.186389  0.286355  0.280926  1
  Si  Si1230  1  0.186547  0.213601  0.214741  1
  Si  Si1231  1  0.888140  0.179744  0.183462  1
  Si  Si1232  1  0.387857  0.320325  0.183396  1
  Si  Si1233  1  0.612787  0.092038  0.312219  1
  Si  Si1234  1  0.887515  0.091854  0.183477  1
  Si  Si1235  1  0.387204  0.091736  0.312274  1
  Si  Si1236  1  0.500052  0.072584  0.260357  1
  Si  Si1237  1  -0.000000  0.072817  0.235355  1
  Si  Si1238  1  0.500015  0.146088  0.240376  1
  Si  Si1239  1  -0.000000  0.146283  0.255383  1
  Si  Si1240  1  0.499973  0.218771  0.260737  1
  Si  Si1241  1  0.500008  0.281185  0.234894  1
  Si  Si1242  1  -0.000000  0.218879  0.234897  1
  Si  Si1243  1  -0.000000  0.281261  0.260754  1
  Si  Si1244  1  -0.000000  -0.000000  0.255812  1
  Si  Si1245  1  0.887961  0.320285  0.312229  1
  Si  Si1246  1  0.113088  0.091913  0.183388  1
  Si  Si1247  1  0.387672  0.179630  0.312282  1
  Si  Si1248  1  0.692066  0.572774  0.150487  1
  Si  Si1249  1  0.192033  0.427110  0.087479  1
  Si  Si1250  1  0.808141  0.572753  0.087421  1
  Si  Si1251  1  0.308230  0.427123  0.150421  1
  Si  Si1252  1  0.808254  0.427096  0.087465  1
  Si  Si1253  1  0.308156  0.572741  0.150479  1
  Si  Si1254  1  0.692061  0.427094  0.150421  1
  Si  Si1255  1  0.191978  0.572770  0.087391  1
  Si  Si1256  1  0.713726  0.644540  0.101663  1
  Si  Si1257  1  0.213842  0.355289  0.136242  1
  Si  Si1258  1  0.786379  0.644574  0.136255  1
  Si  Si1259  1  0.286465  0.355288  0.101647  1
  Si  Si1260  1  0.786354  0.355229  0.136256  1
  Si  Si1261  1  0.286361  0.644536  0.101635  1
  Si  Si1262  1  0.713927  0.355246  0.101645  1
  Si  Si1263  1  0.213766  0.644528  0.136231  1
  Si  Si1264  1  0.715156  0.500002  0.101472  1
  Si  Si1265  1  0.215103  0.500020  0.136418  1
  Si  Si1266  1  0.785069  0.500027  0.136436  1
  Si  Si1267  1  0.285050  0.500049  0.101456  1
  Si  Si1268  1  0.500122  0.572521  0.131505  1
  Si  Si1269  1  0.000000  0.427318  0.106431  1
  Si  Si1270  1  0.000000  0.572590  0.106392  1
  Si  Si1271  1  0.500142  0.427342  0.131468  1
  Si  Si1272  1  0.500020  0.646012  0.111491  1
  Si  Si1273  1  0.000000  0.353850  0.126438  1
  Si  Si1274  1  0.000000  0.646078  0.126413  1
  Si  Si1275  1  0.500213  0.353868  0.111465  1
  Si  Si1276  1  0.500096  0.499970  0.110933  1
  Si  Si1277  1  -0.000000  0.499992  0.126939  1
  Si  Si1278  1  0.613011  0.407991  0.183378  1
  Si  Si1279  1  0.192153  0.572752  0.279357  1
  Si  Si1280  1  0.691997  0.427092  0.216345  1
  Si  Si1281  1  0.308239  0.572774  0.216343  1
  Si  Si1282  1  0.808171  0.427171  0.279330  1
  Si  Si1283  1  0.308288  0.427109  0.216362  1
  Si  Si1284  1  0.808193  0.572775  0.279372  1
  Si  Si1285  1  0.192020  0.427145  0.279372  1
  Si  Si1286  1  0.692081  0.572829  0.216319  1
  Si  Si1287  1  0.213734  0.644546  0.230565  1
  Si  Si1288  1  0.713859  0.355315  0.265148  1
  Si  Si1289  1  0.286538  0.644565  0.265142  1
  Si  Si1290  1  0.786466  0.355327  0.230550  1
  Si  Si1291  1  0.286335  0.355316  0.265180  1
  Si  Si1292  1  0.786390  0.644649  0.230543  1
  Si  Si1293  1  0.213837  0.355329  0.230574  1
  Si  Si1294  1  0.714009  0.644647  0.265154  1
  Si  Si1295  1  0.387416  0.408217  0.183388  1
  Si  Si1296  1  0.215197  0.499991  0.230381  1
  Si  Si1297  1  0.715081  0.500055  0.265314  1
  Si  Si1298  1  0.285169  0.499980  0.265341  1
  Si  Si1299  1  0.784966  0.500028  0.230347  1
  Si  Si1300  1  -0.000000  0.572478  0.260389  1
  Si  Si1301  1  0.500174  0.427160  0.235318  1
  Si  Si1302  1  0.500200  0.572589  0.235310  1
  Si  Si1303  1  -0.000000  0.427464  0.260396  1
  Si  Si1304  1  0.000000  0.646025  0.240414  1
  Si  Si1305  1  0.500075  0.353764  0.255383  1
  Si  Si1306  1  0.500306  0.646061  0.255334  1
  Si  Si1307  1  0.000000  0.353960  0.240415  1
  Si  Si1308  1  -0.000000  0.499968  0.239792  1
  Si  Si1309  1  0.500112  0.499892  0.255795  1
  Si  Si1310  1  0.112867  0.592124  0.312262  1
  Si  Si1311  1  0.612914  0.592237  0.183402  1
  Si  Si1312  1  0.387375  0.591974  0.183407  1
  Si  Si1313  1  0.691924  0.927159  0.087500  1
  Si  Si1314  1  0.808207  0.927189  0.150345  1
  Si  Si1315  1  0.308061  0.927196  0.087412  1
  Si  Si1316  1  0.192118  0.927181  0.150487  1
  Si  Si1317  1  0.713720  0.855297  0.136218  1
  Si  Si1318  1  0.786416  0.855292  0.101627  1
  Si  Si1319  1  0.286266  0.855347  0.136259  1
  Si  Si1320  1  0.213848  0.855369  0.101651  1
  Si  Si1321  1  0.686196  0.713625  0.151912  1
  Si  Si1322  1  0.686271  0.786251  0.085956  1
  Si  Si1323  1  0.813700  0.713652  0.086037  1
  Si  Si1324  1  0.813806  0.786168  0.151818  1
  Si  Si1325  1  0.313491  0.786343  0.085916  1
  Si  Si1326  1  0.313395  0.713571  0.151951  1
  Si  Si1327  1  0.186423  0.786385  0.152027  1
  Si  Si1328  1  0.186660  0.713481  0.085836  1
  Si  Si1329  1  0.285079  0.000000  0.136429  1
  Si  Si1330  1  0.887087  0.907958  0.183290  1
  Si  Si1331  1  0.499890  0.927402  0.106421  1
  Si  Si1332  1  -0.000000  0.927481  0.131456  1
  Si  Si1333  1  0.499942  0.853899  0.126419  1
  Si  Si1334  1  -0.000000  0.853967  0.111471  1
  Si  Si1335  1  0.499776  0.718762  0.131847  1
  Si  Si1336  1  0.499840  0.781225  0.106025  1
  Si  Si1337  1  0.000000  0.718779  0.106007  1
  Si  Si1338  1  0.000000  0.781251  0.131820  1
  Si  Si1339  1  0.215134  0.000000  0.101468  1
  Si  Si1340  1  0.888050  0.820062  0.183257  1
  Si  Si1341  1  0.191992  0.927206  0.216303  1
  Si  Si1342  1  0.308148  0.927228  0.279385  1
  Si  Si1343  1  0.808234  0.927168  0.216255  1
  Si  Si1344  1  0.692023  0.927172  0.279414  1
  Si  Si1345  1  0.213675  0.855479  0.265130  1
  Si  Si1346  1  0.286542  0.855484  0.230555  1
  Si  Si1347  1  0.786273  0.855384  0.265145  1
  Si  Si1348  1  0.713891  0.855412  0.230536  1
  Si  Si1349  1  0.186572  0.713781  0.280702  1
  Si  Si1350  1  0.186700  0.786303  0.214953  1
  Si  Si1351  1  0.313708  0.713538  0.214857  1
  Si  Si1352  1  0.313739  0.786483  0.280820  1
  Si  Si1353  1  0.813710  0.786526  0.214723  1
  Si  Si1354  1  0.813842  0.713600  0.280929  1
  Si  Si1355  1  0.686524  0.786282  0.280827  1
  Si  Si1356  1  0.686669  0.713755  0.214853  1
  Si  Si1357  1  0.611647  0.680140  0.183409  1
  Si  Si1358  1  0.112068  0.819963  0.183495  1
  Si  Si1359  1  0.785040  -0.000000  0.265324  1
  Si  Si1360  1  0.387625  0.679863  0.183395  1
  Si  Si1361  1  0.215004  0.000000  0.265313  1
  Si  Si1362  1  0.715161  0.000000  0.230360  1
  Si  Si1363  1  0.285004  0.000000  0.230355  1
  Si  Si1364  1  0.000000  0.927437  0.235272  1
  Si  Si1365  1  0.500139  0.927482  0.260416  1
  Si  Si1366  1  0.000000  0.853973  0.255305  1
  Si  Si1367  1  0.500256  0.853998  0.240402  1
  Si  Si1368  1  0.000000  0.718812  0.260727  1
  Si  Si1369  1  -0.000000  0.781270  0.234907  1
  Si  Si1370  1  0.500256  0.718748  0.234931  1
  Si  Si1371  1  0.500200  0.781240  0.260740  1
  Si  Si1372  1  0.500082  0.000000  0.239812  1
  Si  Si1373  1  0.112215  0.680024  0.312164  1
  Si  Si1374  1  0.112637  0.907859  0.183394  1
  Si  Si1375  1  0.191929  0.072817  0.408223  1
  Si  Si1376  1  0.308391  0.072814  0.345263  1
  Si  Si1377  1  0.808151  0.072818  0.408334  1
  Si  Si1378  1  0.692125  0.072842  0.345150  1
  Si  Si1379  1  0.213764  0.144579  0.359461  1
  Si  Si1380  1  0.286553  0.144597  0.394044  1
  Si  Si1381  1  0.786350  0.144605  0.359431  1
  Si  Si1382  1  0.714002  0.144602  0.394043  1
  Si  Si1383  1  0.186633  0.213704  0.409677  1
  Si  Si1384  1  0.186523  0.286206  0.343793  1
  Si  Si1385  1  0.313694  0.213494  0.343710  1
  Si  Si1386  1  0.313953  0.286365  0.409773  1
  Si  Si1387  1  0.813813  0.286375  0.343644  1
  Si  Si1388  1  0.813899  0.213495  0.409826  1
  Si  Si1389  1  0.686491  0.286157  0.409742  1
  Si  Si1390  1  0.686591  0.213657  0.343726  1
  Si  Si1391  1  0.112153  0.179824  0.441111  1
  Si  Si1392  1  0.111960  0.320127  0.312372  1
  Si  Si1393  1  0.611675  0.179941  0.312291  1
  Si  Si1394  1  0.785017  0.000000  0.359245  1
  Si  Si1395  1  -0.000000  0.072655  0.389304  1
  Si  Si1396  1  0.500399  0.072679  0.364186  1
  Si  Si1397  1  -0.000000  0.146116  0.369273  1
  Si  Si1398  1  0.500309  0.146126  0.384226  1
  Si  Si1399  1  -0.000000  0.218829  0.389660  1
  Si  Si1400  1  0.000000  0.281234  0.363816  1
  Si  Si1401  1  0.500176  0.218793  0.363799  1
  Si  Si1402  1  0.500210  0.281197  0.389646  1
  Si  Si1403  1  0.000000  0.000000  0.368725  1
  Si  Si1404  1  0.500089  0.000000  0.384732  1
  Si  Si1405  1  0.715124  0.000000  0.394209  1
  Si  Si1406  1  0.611867  0.320080  0.441164  1
  Si  Si1407  1  0.692049  0.072825  0.537092  1
  Si  Si1408  1  0.808183  0.072840  0.474223  1
  Si  Si1409  1  0.308113  0.072821  0.537111  1
  Si  Si1410  1  0.191925  0.072867  0.474169  1
  Si  Si1411  1  0.713754  0.144706  0.488366  1
  Si  Si1412  1  0.786352  0.144729  0.522970  1
  Si  Si1413  1  0.286310  0.144689  0.488345  1
  Si  Si1414  1  0.213861  0.144714  0.522955  1
  Si  Si1415  1  0.686188  0.213749  0.538651  1
  Si  Si1416  1  0.686432  0.286375  0.472617  1
  Si  Si1417  1  0.813724  0.213702  0.472665  1
  Si  Si1418  1  0.813908  0.286273  0.538605  1
  Si  Si1419  1  0.313570  0.286401  0.472602  1
  Si  Si1420  1  0.313763  0.213689  0.538674  1
  Si  Si1421  1  0.186389  0.286355  0.538729  1
  Si  Si1422  1  0.186547  0.213601  0.472544  1
  Si  Si1423  1  0.888140  0.179744  0.441265  1
  Si  Si1424  1  0.387857  0.320325  0.441199  1
  Si  Si1425  1  0.612787  0.092038  0.570022  1
  Si  Si1426  1  0.887515  0.091854  0.441281  1
  Si  Si1427  1  0.387204  0.091736  0.570077  1
  Si  Si1428  1  0.500052  0.072584  0.518160  1
  Si  Si1429  1  -0.000000  0.072817  0.493158  1
  Si  Si1430  1  0.500015  0.146088  0.498179  1
  Si  Si1431  1  -0.000000  0.146283  0.513186  1
  Si  Si1432  1  0.499973  0.218771  0.518540  1
  Si  Si1433  1  0.500008  0.281185  0.492697  1
  Si  Si1434  1  -0.000000  0.218879  0.492700  1
  Si  Si1435  1  0.000000  0.281261  0.518557  1
  Si  Si1436  1  0.000000  0.000000  0.513615  1
  Si  Si1437  1  0.887961  0.320285  0.570032  1
  Si  Si1438  1  0.113088  0.091913  0.441191  1
  Si  Si1439  1  0.387672  0.179630  0.570085  1
  Si  Si1440  1  0.692066  0.572774  0.408290  1
  Si  Si1441  1  0.192033  0.427110  0.345282  1
  Si  Si1442  1  0.808141  0.572753  0.345224  1
  Si  Si1443  1  0.308230  0.427123  0.408225  1
  Si  Si1444  1  0.808254  0.427096  0.345269  1
  Si  Si1445  1  0.308156  0.572741  0.408283  1
  Si  Si1446  1  0.692061  0.427094  0.408225  1
  Si  Si1447  1  0.191978  0.572770  0.345194  1
  Si  Si1448  1  0.713726  0.644540  0.359466  1
  Si  Si1449  1  0.213842  0.355289  0.394045  1
  Si  Si1450  1  0.786379  0.644574  0.394059  1
  Si  Si1451  1  0.286465  0.355288  0.359450  1
  Si  Si1452  1  0.786354  0.355229  0.394059  1
  Si  Si1453  1  0.286361  0.644536  0.359438  1
  Si  Si1454  1  0.713927  0.355246  0.359448  1
  Si  Si1455  1  0.213766  0.644528  0.394034  1
  Si  Si1456  1  0.112904  0.408032  0.312329  1
  Si  Si1457  1  0.887323  0.592089  0.312304  1
  Si  Si1458  1  0.715156  0.500002  0.359275  1
  Si  Si1459  1  0.215103  0.500020  0.394221  1
  Si  Si1460  1  0.785069  0.500027  0.394239  1
  Si  Si1461  1  0.285050  0.500049  0.359259  1
  Si  Si1462  1  0.500122  0.572521  0.389308  1
  Si  Si1463  1  -0.000000  0.427318  0.364234  1
  Si  Si1464  1  -0.000000  0.572590  0.364195  1
  Si  Si1465  1  0.500142  0.427342  0.389271  1
  Si  Si1466  1  0.500020  0.646012  0.369294  1
  Si  Si1467  1  0.000000  0.353850  0.384241  1
  Si  Si1468  1  -0.000000  0.646078  0.384216  1
  Si  Si1469  1  0.500213  0.353868  0.369268  1
  Si  Si1470  1  0.500096  0.499970  0.368737  1
  Si  Si1471  1  0.000000  0.499992  0.384742  1
  Si  Si1472  1  0.887301  0.408179  0.312290  1
  Si  Si1473  1  0.613011  0.407991  0.441181  1
  Si  Si1474  1  0.192153  0.572752  0.537160  1
  Si  Si1475  1  0.691997  0.427092  0.474148  1
  Si  Si1476  1  0.308239  0.572774  0.474146  1
  Si  Si1477  1  0.808171  0.427171  0.537133  1
  Si  Si1478  1  0.308288  0.427109  0.474165  1
  Si  Si1479  1  0.808193  0.572775  0.537175  1
  Si  Si1480  1  0.192020  0.427145  0.537175  1
  Si  Si1481  1  0.692081  0.572829  0.474122  1
  Si  Si1482  1  0.213734  0.644546  0.488368  1
  Si  Si1483  1  0.713859  0.355315  0.522951  1
  Si  Si1484  1  0.286538  0.644565  0.522945  1
  Si  Si1485  1  0.786466  0.355327  0.488353  1
  Si  Si1486  1  0.286335  0.355316  0.522983  1
  Si  Si1487  1  0.786390  0.644649  0.488346  1
  Si  Si1488  1  0.213837  0.355329  0.488377  1
  Si  Si1489  1  0.714009  0.644647  0.522957  1
  Si  Si1490  1  0.387416  0.408217  0.441191  1
  Si  Si1491  1  0.215197  0.499991  0.488184  1
  Si  Si1492  1  0.715081  0.500055  0.523117  1
  Si  Si1493  1  0.285169  0.499980  0.523144  1
  Si  Si1494  1  0.784966  0.500028  0.488150  1
  Si  Si1495  1  -0.000000  0.572478  0.518192  1
  Si  Si1496  1  0.500174  0.427160  0.493121  1
  Si  Si1497  1  0.500200  0.572589  0.493113  1
  Si  Si1498  1  0.000000  0.427464  0.518199  1
  Si  Si1499  1  -0.000000  0.646025  0.498217  1
  Si  Si1500  1  0.500075  0.353764  0.513186  1
  Si  Si1501  1  0.500306  0.646061  0.513137  1
  Si  Si1502  1  0.000000  0.353960  0.498218  1
  Si  Si1503  1  0.000000  0.499968  0.497595  1
  Si  Si1504  1  0.500112  0.499892  0.513598  1
  Si  Si1505  1  0.112867  0.592124  0.570065  1
  Si  Si1506  1  0.612914  0.592237  0.441205  1
  Si  Si1507  1  0.387375  0.591974  0.441210  1
  Si  Si1508  1  0.691924  0.927159  0.345303  1
  Si  Si1509  1  0.808207  0.927189  0.408149  1
  Si  Si1510  1  0.308061  0.927196  0.345215  1
  Si  Si1511  1  0.192118  0.927181  0.408290  1
  Si  Si1512  1  0.713720  0.855297  0.394021  1
  Si  Si1513  1  0.786416  0.855292  0.359430  1
  Si  Si1514  1  0.286266  0.855347  0.394062  1
  Si  Si1515  1  0.213848  0.855369  0.359454  1
  Si  Si1516  1  0.686196  0.713625  0.409715  1
  Si  Si1517  1  0.686271  0.786251  0.343759  1
  Si  Si1518  1  0.813700  0.713652  0.343840  1
  Si  Si1519  1  0.813806  0.786168  0.409621  1
  Si  Si1520  1  0.313491  0.786343  0.343719  1
  Si  Si1521  1  0.313395  0.713571  0.409754  1
  Si  Si1522  1  0.186423  0.786385  0.409830  1
  Si  Si1523  1  0.186660  0.713481  0.343639  1
  Si  Si1524  1  0.285079  -0.000000  0.394232  1
  Si  Si1525  1  0.611777  0.819910  0.312292  1
  Si  Si1526  1  0.887087  0.907958  0.441093  1
  Si  Si1527  1  0.387570  0.908004  0.312304  1
  Si  Si1528  1  0.499890  0.927402  0.364225  1
  Si  Si1529  1  -0.000000  0.927481  0.389259  1
  Si  Si1530  1  0.499942  0.853899  0.384222  1
  Si  Si1531  1  -0.000000  0.853967  0.369274  1
  Si  Si1532  1  0.499776  0.718762  0.389650  1
  Si  Si1533  1  0.499840  0.781225  0.363828  1
  Si  Si1534  1  0.000000  0.718779  0.363810  1
  Si  Si1535  1  -0.000000  0.781251  0.389623  1
  Si  Si1536  1  0.215134  0.000000  0.359271  1
  Si  Si1537  1  0.888199  0.679978  0.312383  1
  Si  Si1538  1  0.888050  0.820062  0.441060  1
  Si  Si1539  1  0.387758  0.820120  0.312291  1
  Si  Si1540  1  0.613123  0.907820  0.312356  1
  Si  Si1541  1  0.191992  0.927206  0.474106  1
  Si  Si1542  1  0.308148  0.927228  0.537188  1
  Si  Si1543  1  0.808234  0.927168  0.474058  1
  Si  Si1544  1  0.692023  0.927172  0.537217  1
  Si  Si1545  1  0.213675  0.855479  0.522933  1
  Si  Si1546  1  0.286542  0.855484  0.488358  1
  Si  Si1547  1  0.786273  0.855384  0.522948  1
  Si  Si1548  1  0.713891  0.855412  0.488339  1
  Si  Si1549  1  0.186572  0.713781  0.538505  1
  Si  Si1550  1  0.186700  0.786303  0.472757  1
  Si  Si1551  1  0.313708  0.713538  0.472660  1
  Si  Si1552  1  0.313739  0.786483  0.538623  1
  Si  Si1553  1  0.813710  0.786526  0.472526  1
  Si  Si1554  1  0.813842  0.713600  0.538732  1
  Si  Si1555  1  0.686524  0.786282  0.538630  1
  Si  Si1556  1  0.686669  0.713755  0.472656  1
  Si  Si1557  1  0.611647  0.680140  0.441212  1
  Si  Si1558  1  0.112068  0.819963  0.441298  1
  Si  Si1559  1  0.785040  -0.000000  0.523127  1
  Si  Si1560  1  0.387625  0.679863  0.441198  1
  Si  Si1561  1  0.215004  0.000000  0.523116  1
  Si  Si1562  1  0.715161  0.000000  0.488163  1
  Si  Si1563  1  0.285004  0.000000  0.488158  1
  Si  Si1564  1  -0.000000  0.927437  0.493075  1
  Si  Si1565  1  0.500139  0.927482  0.518219  1
  Si  Si1566  1  -0.000000  0.853973  0.513108  1
  Si  Si1567  1  0.500256  0.853998  0.498205  1
  Si  Si1568  1  -0.000000  0.718812  0.518530  1
  Si  Si1569  1  -0.000000  0.781270  0.492710  1
  Si  Si1570  1  0.500256  0.718748  0.492735  1
  Si  Si1571  1  0.500200  0.781240  0.518543  1
  Si  Si1572  1  0.500082  0.000000  0.497615  1
  Si  Si1573  1  0.112215  0.680024  0.569967  1
  Si  Si1574  1  0.112637  0.907859  0.441198  1
  Si  Si1575  1  0.191929  0.072817  0.666026  1
  Si  Si1576  1  0.308391  0.072814  0.603066  1
  Si  Si1577  1  0.808151  0.072818  0.666138  1
  Si  Si1578  1  0.692125  0.072842  0.602953  1
  Si  Si1579  1  0.213764  0.144579  0.617264  1
  Si  Si1580  1  0.286553  0.144597  0.651847  1
  Si  Si1581  1  0.786350  0.144605  0.617234  1
  Si  Si1582  1  0.714002  0.144602  0.651846  1
  Si  Si1583  1  0.186633  0.213704  0.667480  1
  Si  Si1584  1  0.186523  0.286206  0.601596  1
  Si  Si1585  1  0.313694  0.213494  0.601513  1
  Si  Si1586  1  0.313953  0.286365  0.667577  1
  Si  Si1587  1  0.813813  0.286375  0.601447  1
  Si  Si1588  1  0.813899  0.213495  0.667629  1
  Si  Si1589  1  0.686491  0.286157  0.667545  1
  Si  Si1590  1  0.686591  0.213657  0.601529  1
  Si  Si1591  1  0.112153  0.179824  0.698914  1
  Si  Si1592  1  0.111960  0.320127  0.570175  1
  Si  Si1593  1  0.611675  0.179941  0.570095  1
  Si  Si1594  1  0.785017  -0.000000  0.617048  1
  Si  Si1595  1  -0.000000  0.072655  0.647107  1
  Si  Si1596  1  0.500399  0.072679  0.621989  1
  Si  Si1597  1  -0.000000  0.146116  0.627076  1
  Si  Si1598  1  0.500309  0.146126  0.642030  1
  Si  Si1599  1  0.000000  0.218829  0.647463  1
  Si  Si1600  1  -0.000000  0.281234  0.621619  1
  Si  Si1601  1  0.500176  0.218793  0.621602  1
  Si  Si1602  1  0.500210  0.281197  0.647449  1
  Si  Si1603  1  0.000000  0.000000  0.626528  1
  Si  Si1604  1  0.500089  0.000000  0.642535  1
  Si  Si1605  1  0.715124  0.000000  0.652012  1
  Si  Si1606  1  0.611867  0.320080  0.698967  1
  Si  Si1607  1  0.692049  0.072825  0.794895  1
  Si  Si1608  1  0.808183  0.072840  0.732026  1
  Si  Si1609  1  0.308113  0.072821  0.794914  1
  Si  Si1610  1  0.191925  0.072867  0.731972  1
  Si  Si1611  1  0.713754  0.144706  0.746169  1
  Si  Si1612  1  0.786352  0.144729  0.780773  1
  Si  Si1613  1  0.286310  0.144689  0.746148  1
  Si  Si1614  1  0.213861  0.144714  0.780758  1
  Si  Si1615  1  0.686188  0.213749  0.796454  1
  Si  Si1616  1  0.686432  0.286375  0.730420  1
  Si  Si1617  1  0.813724  0.213702  0.730468  1
  Si  Si1618  1  0.813908  0.286273  0.796408  1
  Si  Si1619  1  0.313570  0.286401  0.730405  1
  Si  Si1620  1  0.313763  0.213689  0.796477  1
  Si  Si1621  1  0.186389  0.286355  0.796533  1
  Si  Si1622  1  0.186547  0.213601  0.730347  1
  Si  Si1623  1  0.888140  0.179744  0.699069  1
  Si  Si1624  1  0.387857  0.320325  0.699002  1
  Si  Si1625  1  0.887515  0.091854  0.699084  1
  Si  Si1626  1  0.500052  0.072584  0.775963  1
  Si  Si1627  1  0.000000  0.072817  0.750961  1
  Si  Si1628  1  0.500015  0.146088  0.755982  1
  Si  Si1629  1  -0.000000  0.146283  0.770989  1
  Si  Si1630  1  0.499973  0.218771  0.776343  1
  Si  Si1631  1  0.500008  0.281185  0.750500  1
  Si  Si1632  1  -0.000000  0.218879  0.750503  1
  Si  Si1633  1  -0.000000  0.281261  0.776360  1
  Si  Si1634  1  0.000000  0.000000  0.771418  1
  Si  Si1635  1  0.113088  0.091913  0.698995  1
  Si  Si1636  1  0.692066  0.572774  0.666093  1
  Si  Si1637  1  0.192033  0.427110  0.603085  1
  Si  Si1638  1  0.808141  0.572753  0.603027  1
  Si  Si1639  1  0.308230  0.427123  0.666028  1
  Si  Si1640  1  0.808254  0.427096  0.603072  1
  Si  Si1641  1  0.308156  0.572741  0.666086  1
  Si  Si1642  1  0.692061  0.427094  0.666028  1
  Si  Si1643  1  0.191978  0.572770  0.602997  1
  Si  Si1644  1  0.713726  0.644540  0.617269  1
  Si  Si1645  1  0.213842  0.355289  0.651849  1
  Si  Si1646  1  0.786379  0.644574  0.651862  1
  Si  Si1647  1  0.286465  0.355288  0.617253  1
  Si  Si1648  1  0.786354  0.355229  0.651862  1
  Si  Si1649  1  0.286361  0.644536  0.617241  1
  Si  Si1650  1  0.713927  0.355246  0.617251  1
  Si  Si1651  1  0.213766  0.644528  0.651837  1
  Si  Si1652  1  0.112904  0.408032  0.570132  1
  Si  Si1653  1  0.887323  0.592089  0.570107  1
  Si  Si1654  1  0.715156  0.500002  0.617078  1
  Si  Si1655  1  0.215103  0.500020  0.652024  1
  Si  Si1656  1  0.785069  0.500027  0.652042  1
  Si  Si1657  1  0.285050  0.500049  0.617062  1
  Si  Si1658  1  0.500122  0.572521  0.647111  1
  Si  Si1659  1  0.000000  0.427318  0.622037  1
  Si  Si1660  1  0.000000  0.572590  0.621998  1
  Si  Si1661  1  0.500142  0.427342  0.647074  1
  Si  Si1662  1  0.500020  0.646012  0.627097  1
  Si  Si1663  1  -0.000000  0.353850  0.642044  1
  Si  Si1664  1  0.000000  0.646078  0.642019  1
  Si  Si1665  1  0.500213  0.353868  0.627072  1
  Si  Si1666  1  0.500096  0.499970  0.626540  1
  Si  Si1667  1  0.000000  0.499992  0.642545  1
  Si  Si1668  1  0.887301  0.408179  0.570093  1
  Si  Si1669  1  0.613011  0.407991  0.698984  1
  Si  Si1670  1  0.192153  0.572752  0.794964  1
  Si  Si1671  1  0.691997  0.427092  0.731952  1
  Si  Si1672  1  0.308239  0.572774  0.731949  1
  Si  Si1673  1  0.808171  0.427171  0.794936  1
  Si  Si1674  1  0.308288  0.427109  0.731968  1
  Si  Si1675  1  0.808193  0.572775  0.794979  1
  Si  Si1676  1  0.192020  0.427145  0.794978  1
  Si  Si1677  1  0.692081  0.572829  0.731925  1
  Si  Si1678  1  0.213734  0.644546  0.746171  1
  Si  Si1679  1  0.713859  0.355315  0.780754  1
  Si  Si1680  1  0.286538  0.644565  0.780749  1
  Si  Si1681  1  0.786466  0.355327  0.746156  1
  Si  Si1682  1  0.286335  0.355316  0.780786  1
  Si  Si1683  1  0.786390  0.644649  0.746149  1
  Si  Si1684  1  0.213837  0.355329  0.746181  1
  Si  Si1685  1  0.714009  0.644647  0.780760  1
  Si  Si1686  1  0.387416  0.408217  0.698995  1
  Si  Si1687  1  0.215197  0.499991  0.745987  1
  Si  Si1688  1  0.715081  0.500055  0.780920  1
  Si  Si1689  1  0.285169  0.499980  0.780947  1
  Si  Si1690  1  0.784966  0.500028  0.745953  1
  Si  Si1691  1  -0.000000  0.572478  0.775995  1
  Si  Si1692  1  0.500174  0.427160  0.750924  1
  Si  Si1693  1  0.500200  0.572589  0.750916  1
  Si  Si1694  1  -0.000000  0.427464  0.776002  1
  Si  Si1695  1  0.000000  0.646025  0.756020  1
  Si  Si1696  1  0.500075  0.353764  0.770989  1
  Si  Si1697  1  0.500306  0.646061  0.770940  1
  Si  Si1698  1  -0.000000  0.353960  0.756022  1
  Si  Si1699  1  -0.000000  0.499968  0.755398  1
  Si  Si1700  1  0.500112  0.499892  0.771401  1
  Si  Si1701  1  0.612914  0.592237  0.699008  1
  Si  Si1702  1  0.387375  0.591974  0.699013  1
  Si  Si1703  1  0.691924  0.927159  0.603106  1
  Si  Si1704  1  0.808207  0.927189  0.665952  1
  Si  Si1705  1  0.308061  0.927196  0.603019  1
  Si  Si1706  1  0.192118  0.927181  0.666093  1
  Si  Si1707  1  0.713720  0.855297  0.651825  1
  Si  Si1708  1  0.786416  0.855292  0.617233  1
  Si  Si1709  1  0.286266  0.855347  0.651865  1
  Si  Si1710  1  0.213848  0.855369  0.617257  1
  Si  Si1711  1  0.686196  0.713625  0.667519  1
  Si  Si1712  1  0.686271  0.786251  0.601562  1
  Si  Si1713  1  0.813700  0.713652  0.601643  1
  Si  Si1714  1  0.813806  0.786168  0.667424  1
  Si  Si1715  1  0.313491  0.786343  0.601522  1
  Si  Si1716  1  0.313395  0.713571  0.667557  1
  Si  Si1717  1  0.186423  0.786385  0.667633  1
  Si  Si1718  1  0.186660  0.713481  0.601442  1
  Si  Si1719  1  0.285079  0.000000  0.652035  1
  Si  Si1720  1  0.611777  0.819910  0.570095  1
  Si  Si1721  1  0.887087  0.907958  0.698896  1
  Si  Si1722  1  0.387570  0.908004  0.570107  1
  Si  Si1723  1  0.499890  0.927402  0.622028  1
  Si  Si1724  1  0.000000  0.927481  0.647062  1
  Si  Si1725  1  0.499942  0.853899  0.642025  1
  Si  Si1726  1  0.000000  0.853967  0.627077  1
  Si  Si1727  1  0.499776  0.718762  0.647453  1
  Si  Si1728  1  0.499840  0.781225  0.621631  1
  Si  Si1729  1  -0.000000  0.718779  0.621613  1
  Si  Si1730  1  -0.000000  0.781251  0.647426  1
  Si  Si1731  1  0.215134  -0.000000  0.617074  1
  Si  Si1732  1  0.888199  0.679978  0.570186  1
  Si  Si1733  1  0.888050  0.820062  0.698863  1
  Si  Si1734  1  0.387758  0.820120  0.570094  1
  Si  Si1735  1  0.613123  0.907820  0.570159  1
  Si  Si1736  1  0.191992  0.927206  0.731909  1
  Si  Si1737  1  0.308148  0.927228  0.794991  1
  Si  Si1738  1  0.808234  0.927168  0.731861  1
  Si  Si1739  1  0.692023  0.927172  0.795020  1
  Si  Si1740  1  0.213675  0.855479  0.780736  1
  Si  Si1741  1  0.286542  0.855484  0.746161  1
  Si  Si1742  1  0.786273  0.855384  0.780751  1
  Si  Si1743  1  0.713891  0.855412  0.746142  1
  Si  Si1744  1  0.186572  0.713781  0.796309  1
  Si  Si1745  1  0.186700  0.786303  0.730560  1
  Si  Si1746  1  0.313708  0.713538  0.730464  1
  Si  Si1747  1  0.313739  0.786483  0.796427  1
  Si  Si1748  1  0.813710  0.786526  0.730329  1
  Si  Si1749  1  0.813842  0.713600  0.796535  1
  Si  Si1750  1  0.686524  0.786282  0.796433  1
  Si  Si1751  1  0.686669  0.713755  0.730459  1
  Si  Si1752  1  0.611647  0.680140  0.699015  1
  Si  Si1753  1  0.112068  0.819963  0.699102  1
  Si  Si1754  1  0.785040  -0.000000  0.780930  1
  Si  Si1755  1  0.387625  0.679863  0.699001  1
  Si  Si1756  1  0.215004  0.000000  0.780919  1
  Si  Si1757  1  0.715161  -0.000000  0.745966  1
  Si  Si1758  1  0.285004  0.000000  0.745961  1
  Si  Si1759  1  -0.000000  0.927437  0.750878  1
  Si  Si1760  1  0.500139  0.927482  0.776022  1
  Si  Si1761  1  -0.000000  0.853973  0.770911  1
  Si  Si1762  1  0.500256  0.853998  0.756008  1
  Si  Si1763  1  -0.000000  0.718812  0.776333  1
  Si  Si1764  1  0.000000  0.781270  0.750513  1
  Si  Si1765  1  0.500256  0.718748  0.750538  1
  Si  Si1766  1  0.500200  0.781240  0.776346  1
  Si  Si1767  1  0.500082  -0.000000  0.755418  1
  Si  Si1768  1  0.112637  0.907859  0.699001  1
  H  H1769  1  0.337336  0.075175  0.059033  1
  H  H1770  1  0.662895  0.075557  0.058955  1
  H  H1771  1  0.155677  0.302127  0.059098  1
  H  H1772  1  0.342762  0.197341  0.058971  1
  H  H1773  1  0.842966  0.302469  0.058895  1
  H  H1774  1  0.656010  0.197730  0.059016  1
  H  H1775  1  0.162887  0.424679  0.059063  1
  H  H1776  1  0.837358  0.575460  0.059025  1
  H  H1777  1  0.837230  0.424698  0.059041  1
  H  H1778  1  0.162893  0.575599  0.058996  1
  H  H1779  1  0.663045  0.924538  0.059080  1
  H  H1780  1  0.337458  0.924567  0.059024  1
  H  H1781  1  0.655591  0.801959  0.059020  1
  H  H1782  1  0.844398  0.697752  0.059140  1
  H  H1783  1  0.342941  0.802278  0.058962  1
  H  H1784  1  0.157550  0.697716  0.058832  1
  H  H1785  1  0.662906  0.075358  0.823307  1
  H  H1786  1  0.337131  0.075142  0.823340  1
  H  H1787  1  0.655275  0.197923  0.823358  1
  H  H1788  1  0.844323  0.302419  0.823279  1
  H  H1789  1  0.343509  0.197519  0.823376  1
  H  H1790  1  0.156306  0.302314  0.823457  1
  H  H1791  1  0.162785  0.575422  0.823353  1
  H  H1792  1  0.837301  0.424814  0.823357  1
  H  H1793  1  0.837246  0.575551  0.823378  1
  H  H1794  1  0.163007  0.424585  0.823394  1
  H  H1795  1  0.337601  0.924575  0.823376  1
  H  H1796  1  0.663136  0.924365  0.823426  1
  H  H1797  1  0.155533  0.697923  0.823197  1
  H  H1798  1  0.343161  0.802490  0.823367  1
  H  H1799  1  0.843246  0.697726  0.823505  1
  H  H1800  1  0.655776  0.802126  0.823345  1
