# generated using pymatgen
data_Si25H2O51
_symmetry_space_group_name_H-M   'P 1'
_cell_length_a   13.77465444
_cell_length_b   35.19864774
_cell_length_c   68.19506469
_cell_angle_alpha   90.00000000
_cell_angle_beta   90.00000000
_cell_angle_gamma   90.00000000
_symmetry_Int_Tables_number   1
_chemical_formula_structural   Si25H2O51
_chemical_formula_sum   'Si400 H32 O816'
_cell_volume   33064.3232006
_cell_formula_units_Z   16
loop_
 _symmetry_equiv_pos_site_id
 _symmetry_equiv_pos_as_xyz
  1  'x, y, z'
loop_
 _atom_site_type_symbol
 _atom_site_label
 _atom_site_symmetry_multiplicity
 _atom_site_fract_x
 _atom_site_fract_y
 _atom_site_fract_z
 _atom_site_occupancy
  O  O1  1  0.343520  0.302516  0.086581  1
  O  O2  1  0.655538  0.302070  0.086517  1
  O  O3  1  0.001645  0.250706  0.185368  1
  O  O4  1  0.497942  0.249504  0.185440  1
  O  O5  1  0.000000  0.321454  0.192137  1
  O  O6  1  0.751192  0.108933  0.218890  1
  O  O7  1  0.748995  0.108965  0.152561  1
  O  O8  1  0.249275  0.109023  0.218933  1
  O  O9  1  0.251171  0.108936  0.152541  1
  O  O10  1  0.662906  0.075358  0.247123  1
  O  O11  1  0.837467  0.075199  0.124350  1
  O  O12  1  0.337131  0.075142  0.247164  1
  O  O13  1  0.163157  0.075373  0.124262  1
  O  O14  1  0.746221  0.036207  0.218057  1
  O  O15  1  0.754053  0.036232  0.153436  1
  O  O16  1  0.253688  0.036290  0.218038  1
  O  O17  1  0.246027  0.036251  0.153375  1
  O  O18  1  0.593377  0.074839  0.213921  1
  O  O19  1  0.906799  0.074945  0.157563  1
  O  O20  1  0.406860  0.074774  0.213966  1
  O  O21  1  0.093188  0.074942  0.157464  1
  O  O22  1  0.757097  0.181997  0.155638  1
  O  O23  1  0.757355  0.317960  0.215741  1
  O  O24  1  0.742740  0.181938  0.215898  1
  O  O25  1  0.742965  0.318104  0.155578  1
  O  O26  1  0.242675  0.318070  0.215866  1
  O  O27  1  0.242820  0.181905  0.155563  1
  O  O28  1  0.257178  0.318003  0.155688  1
  O  O29  1  0.257326  0.182064  0.215757  1
  O  O30  1  0.750139  0.140293  0.185744  1
  O  O31  1  0.249887  0.140216  0.185714  1
  O  O32  1  0.599509  0.147618  0.165083  1
  O  O33  1  0.900610  0.147677  0.206445  1
  O  O34  1  0.400549  0.147651  0.165072  1
  O  O35  1  0.099579  0.147617  0.206465  1
  O  O36  1  0.750173  0.249984  0.228884  1
  O  O37  1  0.750211  0.250067  0.142617  1
  O  O38  1  0.250219  0.249965  0.142636  1
  O  O39  1  0.250271  0.250067  0.228886  1
  O  O40  1  0.655275  0.197923  0.247186  1
  O  O41  1  0.656135  0.302273  0.124203  1
  O  O42  1  0.844012  0.197706  0.124292  1
  O  O43  1  0.844323  0.302419  0.247088  1
  O  O44  1  0.342982  0.302521  0.124183  1
  O  O45  1  0.343509  0.197519  0.247209  1
  O  O46  1  0.156306  0.302314  0.247310  1
  O  O47  1  0.156948  0.197697  0.124071  1
  O  O48  1  0.593526  0.222600  0.214521  1
  O  O49  1  0.593402  0.277738  0.156797  1
  O  O50  1  0.907010  0.222213  0.156786  1
  O  O51  1  0.906958  0.277430  0.214585  1
  O  O52  1  0.407625  0.278101  0.156488  1
  O  O53  1  0.407507  0.222245  0.214859  1
  O  O54  1  0.093008  0.277656  0.214830  1
  O  O55  1  0.092783  0.221966  0.156503  1
  O  O56  1  0.499820  0.313817  0.105448  1
  O  O57  1  0.372766  0.135747  0.265990  1
  O  O58  1  0.899709  0.000000  0.206770  1
  O  O59  1  0.399701  0.000000  0.164616  1
  O  O60  1  0.499932  0.107159  0.187266  1
  O  O61  1  -0.000000  0.107519  0.184123  1
  O  O62  1  0.500066  0.035241  0.189399  1
  O  O63  1  0.000000  0.035463  0.182074  1
  O  O64  1  0.500086  0.178641  0.192056  1
  O  O65  1  0.500146  0.320932  0.179669  1
  O  O66  1  0.000000  0.179179  0.179710  1
  O  O67  1  0.500057  0.084570  0.265986  1
  O  O68  1  0.626995  0.136072  0.265933  1
  O  O69  1  0.600456  0.000000  0.164610  1
  O  O70  1  0.662943  0.575627  0.086580  1
  O  O71  1  0.337360  0.424786  0.086532  1
  O  O72  1  0.337359  0.575400  0.086576  1
  O  O73  1  0.663058  0.424623  0.086534  1
  O  O74  1  0.627215  0.363953  0.105327  1
  O  O75  1  0.000000  0.464787  0.189433  1
  O  O76  1  0.251151  0.608857  0.218907  1
  O  O77  1  0.751431  0.391071  0.152526  1
  O  O78  1  0.249005  0.608830  0.152550  1
  O  O79  1  0.749275  0.390989  0.218944  1
  O  O80  1  0.249098  0.391005  0.152522  1
  O  O81  1  0.749400  0.608875  0.218858  1
  O  O82  1  0.251064  0.391039  0.218952  1
  O  O83  1  0.751189  0.608854  0.152594  1
  O  O84  1  0.162785  0.575422  0.247181  1
  O  O85  1  0.663077  0.424552  0.124246  1
  O  O86  1  0.337457  0.575385  0.124271  1
  O  O87  1  0.837301  0.424814  0.247185  1
  O  O88  1  0.337364  0.424758  0.124265  1
  O  O89  1  0.837246  0.575551  0.247212  1
  O  O90  1  0.163007  0.424585  0.247231  1
  O  O91  1  0.662968  0.575636  0.124245  1
  O  O92  1  0.247085  0.536047  0.218479  1
  O  O93  1  0.745871  0.463763  0.153343  1
  O  O94  1  0.253767  0.536019  0.153057  1
  O  O95  1  0.753812  0.463729  0.218077  1
  O  O96  1  0.254201  0.463715  0.153384  1
  O  O97  1  0.753305  0.536059  0.218488  1
  O  O98  1  0.246412  0.463742  0.218192  1
  O  O99  1  0.746648  0.536042  0.152956  1
  O  O100  1  0.093592  0.574440  0.213939  1
  O  O101  1  0.593334  0.424921  0.157458  1
  O  O102  1  0.406843  0.574700  0.157497  1
  O  O103  1  0.906874  0.425214  0.213983  1
  O  O104  1  0.406954  0.425011  0.157477  1
  O  O105  1  0.906918  0.574365  0.214017  1
  O  O106  1  0.093358  0.425259  0.214011  1
  O  O107  1  0.593440  0.574570  0.157458  1
  O  O108  1  0.250221  0.640039  0.185731  1
  O  O109  1  0.749905  0.359837  0.185713  1
  O  O110  1  0.250224  0.359840  0.185756  1
  O  O111  1  0.750048  0.640305  0.185719  1
  O  O112  1  0.099489  0.647435  0.165113  1
  O  O113  1  0.599578  0.352401  0.206453  1
  O  O114  1  0.400795  0.647465  0.206387  1
  O  O115  1  0.900691  0.352364  0.165119  1
  O  O116  1  0.400604  0.352360  0.206465  1
  O  O117  1  0.900641  0.647516  0.165094  1
  O  O118  1  0.099590  0.352415  0.165111  1
  O  O119  1  0.599722  0.647504  0.206428  1
  O  O120  1  0.626993  0.636272  0.105437  1
  O  O121  1  0.499980  0.535282  0.182044  1
  O  O122  1  0.500284  0.464565  0.181989  1
  O  O123  1  0.372911  0.635976  0.105412  1
  O  O124  1  0.872889  0.364162  0.265970  1
  O  O125  1  0.500197  0.584779  0.105411  1
  O  O126  1  -0.000000  0.535365  0.189269  1
  O  O127  1  0.500258  0.415423  0.105395  1
  O  O128  1  0.000000  0.392901  0.187306  1
  O  O129  1  0.100462  0.499865  0.164587  1
  O  O130  1  0.600408  0.499912  0.206755  1
  O  O131  1  0.399802  0.499819  0.206740  1
  O  O132  1  0.899673  0.499833  0.164591  1
  O  O133  1  0.249475  0.500807  0.185792  1
  O  O134  1  0.750241  0.500998  0.185721  1
  O  O135  1  0.000000  0.607265  0.187458  1
  O  O136  1  0.500042  0.392550  0.184141  1
  O  O137  1  0.500442  0.607288  0.184070  1
  O  O138  1  0.127218  0.636142  0.265878  1
  O  O139  1  0.372973  0.364207  0.105392  1
  O  O140  1  0.655485  0.697889  0.086531  1
  O  O141  1  0.342892  0.697593  0.086597  1
  O  O142  1  0.500497  0.821235  0.191949  1
  O  O143  1  0.500519  0.678876  0.179594  1
  O  O144  1  0.497475  0.750155  0.185629  1
  O  O145  1  0.251277  0.891177  0.152522  1
  O  O146  1  0.249072  0.891149  0.218925  1
  O  O147  1  0.749214  0.891143  0.152547  1
  O  O148  1  0.750931  0.891122  0.218879  1
  O  O149  1  0.162514  0.924522  0.124240  1
  O  O150  1  0.337601  0.924575  0.247210  1
  O  O151  1  0.837064  0.924388  0.124149  1
  O  O152  1  0.663136  0.924365  0.247272  1
  O  O153  1  0.246600  0.963976  0.152940  1
  O  O154  1  0.253397  0.963969  0.218503  1
  O  O155  1  0.753607  0.963926  0.152910  1
  O  O156  1  0.746824  0.963903  0.218537  1
  O  O157  1  0.093530  0.925367  0.157500  1
  O  O158  1  0.406669  0.925472  0.213965  1
  O  O159  1  0.906969  0.925440  0.157349  1
  O  O160  1  0.593289  0.925556  0.214069  1
  O  O161  1  0.257149  0.681887  0.155697  1
  O  O162  1  0.257144  0.818120  0.215730  1
  O  O163  1  0.243017  0.681882  0.215765  1
  O  O164  1  0.243111  0.818184  0.155660  1
  O  O165  1  0.742847  0.818136  0.215861  1
  O  O166  1  0.743041  0.681860  0.155531  1
  O  O167  1  0.757235  0.818134  0.155579  1
  O  O168  1  0.757444  0.681915  0.215864  1
  O  O169  1  0.250015  0.860018  0.185716  1
  O  O170  1  0.750132  0.859798  0.185717  1
  O  O171  1  0.099412  0.852613  0.206370  1
  O  O172  1  0.400775  0.852581  0.165112  1
  O  O173  1  0.900544  0.852512  0.206390  1
  O  O174  1  0.599624  0.852562  0.165065  1
  O  O175  1  0.250683  0.749975  0.228714  1
  O  O176  1  0.250723  0.750071  0.142767  1
  O  O177  1  0.750733  0.749979  0.142660  1
  O  O178  1  0.750622  0.750072  0.228807  1
  O  O179  1  0.155533  0.697923  0.246986  1
  O  O180  1  0.155905  0.802128  0.124397  1
  O  O181  1  0.342864  0.697579  0.124211  1
  O  O182  1  0.343161  0.802490  0.247198  1
  O  O183  1  0.842646  0.802457  0.124015  1
  O  O184  1  0.843246  0.697726  0.247369  1
  O  O185  1  0.655776  0.802126  0.247170  1
  O  O186  1  0.655834  0.698046  0.124245  1
  O  O187  1  0.093904  0.722679  0.214350  1
  O  O188  1  0.093852  0.777550  0.157016  1
  O  O189  1  0.407936  0.721769  0.156515  1
  O  O190  1  0.407779  0.778101  0.214880  1
  O  O191  1  0.907991  0.778326  0.156340  1
  O  O192  1  0.907884  0.721961  0.215006  1
  O  O193  1  0.593760  0.777442  0.214525  1
  O  O194  1  0.593862  0.722455  0.156915  1
  O  O195  1  -0.000000  0.821126  0.179578  1
  O  O196  1  -0.000000  0.678779  0.191971  1
  O  O197  1  0.500125  0.964645  0.189342  1
  O  O198  1  -0.000000  0.964729  0.182010  1
  O  O199  1  0.500388  0.892746  0.187455  1
  O  O200  1  -0.000000  0.892725  0.184014  1
  O  O201  1  0.996465  0.749836  0.185582  1
  O  O202  1  0.749891  0.998808  0.185735  1
  O  O203  1  0.250126  0.998947  0.185719  1
  O  O204  1  0.499589  0.686415  0.105429  1
  O  O205  1  0.100328  0.000000  0.206770  1
  O  O206  1  0.499731  0.813624  0.266032  1
  O  O207  1  0.399757  0.000000  0.367432  1
  O  O208  1  0.600435  0.000000  0.367429  1
  O  O209  1  0.100435  0.000000  0.325271  1
  O  O210  1  0.497566  0.250324  0.346166  1
  O  O211  1  0.996790  0.250151  0.346421  1
  O  O212  1  0.251073  0.108936  0.379580  1
  O  O213  1  0.249325  0.108955  0.313148  1
  O  O214  1  0.749296  0.108918  0.379582  1
  O  O215  1  0.751218  0.108879  0.313147  1
  O  O216  1  0.162952  0.075254  0.407821  1
  O  O217  1  0.337336  0.075175  0.284903  1
  O  O218  1  0.837338  0.075443  0.407929  1
  O  O219  1  0.662895  0.075557  0.284805  1
  O  O220  1  0.246201  0.036237  0.378721  1
  O  O221  1  0.254154  0.036247  0.314040  1
  O  O222  1  0.753472  0.036084  0.379172  1
  O  O223  1  0.746693  0.036064  0.313522  1
  O  O224  1  0.093211  0.074844  0.374621  1
  O  O225  1  0.407149  0.074875  0.318088  1
  O  O226  1  0.906745  0.074498  0.374696  1
  O  O227  1  0.593603  0.074576  0.318057  1
  O  O228  1  0.257024  0.181971  0.316356  1
  O  O229  1  0.257383  0.317953  0.376398  1
  O  O230  1  0.243203  0.181929  0.376428  1
  O  O231  1  0.242885  0.318036  0.316275  1
  O  O232  1  0.742824  0.317991  0.376510  1
  O  O233  1  0.742882  0.181858  0.316230  1
  O  O234  1  0.757345  0.317942  0.316280  1
  O  O235  1  0.757434  0.181938  0.376418  1
  O  O236  1  0.250146  0.140050  0.346377  1
  O  O237  1  0.750099  0.140102  0.346351  1
  O  O238  1  0.099497  0.147383  0.325714  1
  O  O239  1  0.400814  0.147443  0.367024  1
  O  O240  1  0.900601  0.147572  0.325690  1
  O  O241  1  0.599724  0.147516  0.367058  1
  O  O242  1  0.250671  0.249921  0.389486  1
  O  O243  1  0.250738  0.250029  0.303282  1
  O  O244  1  0.750673  0.249880  0.303230  1
  O  O245  1  0.750736  0.249982  0.389513  1
  O  O246  1  0.155739  0.197691  0.407699  1
  O  O247  1  0.155677  0.302127  0.284983  1
  O  O248  1  0.342762  0.197341  0.284825  1
  O  O249  1  0.343520  0.302516  0.407868  1
  O  O250  1  0.842966  0.302469  0.284730  1
  O  O251  1  0.843168  0.197348  0.407956  1
  O  O252  1  0.655538  0.302070  0.407804  1
  O  O253  1  0.656010  0.197730  0.284881  1
  O  O254  1  0.093930  0.222554  0.375091  1
  O  O255  1  0.093821  0.277353  0.317621  1
  O  O256  1  0.407876  0.221764  0.317107  1
  O  O257  1  0.407843  0.277897  0.375544  1
  O  O258  1  0.907936  0.278058  0.317047  1
  O  O259  1  0.908034  0.221855  0.375678  1
  O  O260  1  0.593822  0.277282  0.375157  1
  O  O261  1  0.593700  0.222414  0.317486  1
  O  O262  1  0.499620  0.186169  0.266125  1
  O  O263  1  0.127337  0.135945  0.426610  1
  O  O264  1  0.500453  0.321280  0.352666  1
  O  O265  1  0.500445  0.178988  0.340258  1
  O  O266  1  0.899706  0.000000  0.325267  1
  O  O267  1  0.750065  0.001222  0.346344  1
  O  O268  1  -0.000000  0.107392  0.348083  1
  O  O269  1  0.500608  0.107402  0.344661  1
  O  O270  1  -0.000000  0.035443  0.349998  1
  O  O271  1  0.499827  0.035413  0.342694  1
  O  O272  1  0.000000  0.178941  0.352513  1
  O  O273  1  -0.000000  0.321233  0.340113  1
  O  O274  1  0.000000  0.313846  0.266086  1
  O  O275  1  0.000000  0.084558  0.426736  1
  O  O276  1  0.001645  0.250706  0.506655  1
  O  O277  1  0.497942  0.249504  0.506727  1
  O  O278  1  -0.000000  0.321454  0.513424  1
  O  O279  1  0.751192  0.108933  0.540177  1
  O  O280  1  0.748995  0.108965  0.473848  1
  O  O281  1  0.249275  0.109023  0.540220  1
  O  O282  1  0.251171  0.108936  0.473828  1
  O  O283  1  0.662906  0.075358  0.568410  1
  O  O284  1  0.837467  0.075199  0.445637  1
  O  O285  1  0.337131  0.075142  0.568451  1
  O  O286  1  0.163157  0.075373  0.445549  1
  O  O287  1  0.746221  0.036207  0.539344  1
  O  O288  1  0.754053  0.036232  0.474723  1
  O  O289  1  0.253688  0.036290  0.539325  1
  O  O290  1  0.246027  0.036251  0.474662  1
  O  O291  1  0.593377  0.074839  0.535208  1
  O  O292  1  0.906799  0.074945  0.478850  1
  O  O293  1  0.406860  0.074774  0.535253  1
  O  O294  1  0.093188  0.074942  0.478751  1
  O  O295  1  0.757097  0.181997  0.476925  1
  O  O296  1  0.757355  0.317960  0.537028  1
  O  O297  1  0.742740  0.181938  0.537185  1
  O  O298  1  0.742965  0.318104  0.476865  1
  O  O299  1  0.242675  0.318070  0.537153  1
  O  O300  1  0.242820  0.181905  0.476850  1
  O  O301  1  0.257178  0.318003  0.476975  1
  O  O302  1  0.257326  0.182064  0.537044  1
  O  O303  1  0.750139  0.140293  0.507031  1
  O  O304  1  0.249887  0.140216  0.507001  1
  O  O305  1  0.599509  0.147618  0.486370  1
  O  O306  1  0.900610  0.147677  0.527732  1
  O  O307  1  0.400549  0.147651  0.486359  1
  O  O308  1  0.099579  0.147617  0.527752  1
  O  O309  1  0.750173  0.249984  0.550171  1
  O  O310  1  0.750211  0.250067  0.463904  1
  O  O311  1  0.250219  0.249965  0.463923  1
  O  O312  1  0.250271  0.250067  0.550173  1
  O  O313  1  0.655275  0.197923  0.568473  1
  O  O314  1  0.656135  0.302273  0.445490  1
  O  O315  1  0.844012  0.197706  0.445579  1
  O  O316  1  0.844323  0.302419  0.568375  1
  O  O317  1  0.342982  0.302521  0.445470  1
  O  O318  1  0.343509  0.197519  0.568496  1
  O  O319  1  0.156306  0.302314  0.568597  1
  O  O320  1  0.156948  0.197697  0.445358  1
  O  O321  1  0.593526  0.222600  0.535808  1
  O  O322  1  0.593402  0.277738  0.478084  1
  O  O323  1  0.907010  0.222213  0.478073  1
  O  O324  1  0.906958  0.277430  0.535872  1
  O  O325  1  0.407625  0.278101  0.477775  1
  O  O326  1  0.407507  0.222245  0.536146  1
  O  O327  1  0.093008  0.277656  0.536117  1
  O  O328  1  0.092783  0.221966  0.477790  1
  O  O329  1  0.000000  0.186193  0.426687  1
  O  O330  1  0.499820  0.313817  0.426735  1
  O  O331  1  0.372766  0.135747  0.587277  1
  O  O332  1  0.873203  0.135867  0.426875  1
  O  O333  1  0.899709  0.000000  0.528057  1
  O  O334  1  0.399701  0.000000  0.485903  1
  O  O335  1  0.499932  0.107159  0.508553  1
  O  O336  1  -0.000000  0.107519  0.505410  1
  O  O337  1  0.500066  0.035241  0.510686  1
  O  O338  1  0.000000  0.035463  0.503361  1
  O  O339  1  0.500086  0.178641  0.513343  1
  O  O340  1  0.500146  0.320932  0.500956  1
  O  O341  1  0.000000  0.179179  0.500997  1
  O  O342  1  0.500057  0.084570  0.587273  1
  O  O343  1  0.626995  0.136072  0.587220  1
  O  O344  1  0.600456  0.000000  0.485897  1
  O  O345  1  0.500068  0.464725  0.350087  1
  O  O346  1  -0.000000  0.535415  0.342770  1
  O  O347  1  -0.000000  0.464742  0.342633  1
  O  O348  1  0.500178  0.535353  0.349977  1
  O  O349  1  0.751189  0.608797  0.379526  1
  O  O350  1  0.251302  0.391017  0.313169  1
  O  O351  1  0.749114  0.608816  0.313224  1
  O  O352  1  0.249142  0.390975  0.379593  1
  O  O353  1  0.749215  0.390961  0.313171  1
  O  O354  1  0.249234  0.608834  0.379536  1
  O  O355  1  0.751167  0.390981  0.379560  1
  O  O356  1  0.251148  0.608781  0.313198  1
  O  O357  1  0.662943  0.575627  0.407867  1
  O  O358  1  0.162887  0.424679  0.284940  1
  O  O359  1  0.837358  0.575460  0.284893  1
  O  O360  1  0.337360  0.424786  0.407819  1
  O  O361  1  0.837230  0.424698  0.284913  1
  O  O362  1  0.337359  0.575400  0.407863  1
  O  O363  1  0.663058  0.424623  0.407821  1
  O  O364  1  0.162893  0.575599  0.284856  1
  O  O365  1  0.746724  0.535999  0.379168  1
  O  O366  1  0.246195  0.463720  0.314023  1
  O  O367  1  0.753464  0.535999  0.313616  1
  O  O368  1  0.253997  0.463701  0.378705  1
  O  O369  1  0.754051  0.463681  0.314036  1
  O  O370  1  0.253358  0.536019  0.379131  1
  O  O371  1  0.746293  0.463693  0.378734  1
  O  O372  1  0.246634  0.536005  0.313574  1
  O  O373  1  0.593441  0.574502  0.374647  1
  O  O374  1  0.093420  0.425033  0.318168  1
  O  O375  1  0.906770  0.574483  0.318109  1
  O  O376  1  0.406895  0.425078  0.374604  1
  O  O377  1  0.906978  0.425070  0.318112  1
  O  O378  1  0.406808  0.574432  0.374648  1
  O  O379  1  0.593366  0.425101  0.374613  1
  O  O380  1  0.093365  0.574535  0.318083  1
  O  O381  1  0.750038  0.640150  0.346390  1
  O  O382  1  0.250090  0.359833  0.346365  1
  O  O383  1  0.750136  0.359712  0.346378  1
  O  O384  1  0.249966  0.640100  0.346349  1
  O  O385  1  0.599471  0.647402  0.325731  1
  O  O386  1  0.099577  0.352354  0.367048  1
  O  O387  1  0.900630  0.647488  0.367032  1
  O  O388  1  0.400706  0.352309  0.325719  1
  O  O389  1  0.900614  0.352280  0.367052  1
  O  O390  1  0.400608  0.647426  0.325718  1
  O  O391  1  0.599658  0.352348  0.325693  1
  O  O392  1  0.099498  0.647372  0.367035  1
  O  O393  1  0.500188  0.392791  0.347907  1
  O  O394  1  0.873110  0.636107  0.266127  1
  O  O395  1  -0.000000  0.607392  0.344618  1
  O  O396  1  0.600460  0.499871  0.325283  1
  O  O397  1  0.100417  0.499871  0.367442  1
  O  O398  1  0.899749  0.499921  0.367445  1
  O  O399  1  0.399739  0.499921  0.325281  1
  O  O400  1  0.750012  0.500985  0.346388  1
  O  O401  1  0.250086  0.501018  0.346362  1
  O  O402  1  0.500000  0.607289  0.348109  1
  O  O403  1  -0.000000  0.392772  0.344850  1
  O  O404  1  0.127231  0.364002  0.266158  1
  O  O405  1  0.627215  0.363953  0.426614  1
  O  O406  1  -0.000000  0.415411  0.266061  1
  O  O407  1  -0.000000  0.584788  0.266035  1
  O  O408  1  -0.000000  0.464787  0.510720  1
  O  O409  1  0.251151  0.608857  0.540194  1
  O  O410  1  0.751431  0.391071  0.473813  1
  O  O411  1  0.249005  0.608830  0.473837  1
  O  O412  1  0.749275  0.390989  0.540231  1
  O  O413  1  0.249098  0.391005  0.473809  1
  O  O414  1  0.749400  0.608875  0.540145  1
  O  O415  1  0.251064  0.391039  0.540239  1
  O  O416  1  0.751189  0.608854  0.473881  1
  O  O417  1  0.162785  0.575422  0.568468  1
  O  O418  1  0.663077  0.424552  0.445533  1
  O  O419  1  0.337457  0.575385  0.445558  1
  O  O420  1  0.837301  0.424814  0.568472  1
  O  O421  1  0.337364  0.424758  0.445553  1
  O  O422  1  0.837246  0.575551  0.568499  1
  O  O423  1  0.163007  0.424585  0.568518  1
  O  O424  1  0.662968  0.575636  0.445532  1
  O  O425  1  0.247085  0.536047  0.539766  1
  O  O426  1  0.745871  0.463763  0.474630  1
  O  O427  1  0.253767  0.536019  0.474344  1
  O  O428  1  0.753812  0.463729  0.539364  1
  O  O429  1  0.254201  0.463715  0.474671  1
  O  O430  1  0.753305  0.536059  0.539775  1
  O  O431  1  0.246412  0.463742  0.539479  1
  O  O432  1  0.746648  0.536042  0.474243  1
  O  O433  1  0.093592  0.574440  0.535226  1
  O  O434  1  0.593334  0.424921  0.478745  1
  O  O435  1  0.406843  0.574700  0.478784  1
  O  O436  1  0.906874  0.425214  0.535270  1
  O  O437  1  0.406954  0.425011  0.478764  1
  O  O438  1  0.906918  0.574365  0.535304  1
  O  O439  1  0.093358  0.425259  0.535298  1
  O  O440  1  0.593440  0.574570  0.478745  1
  O  O441  1  0.250221  0.640039  0.507018  1
  O  O442  1  0.749905  0.359837  0.507000  1
  O  O443  1  0.250224  0.359840  0.507043  1
  O  O444  1  0.750048  0.640305  0.507006  1
  O  O445  1  0.099489  0.647435  0.486400  1
  O  O446  1  0.599578  0.352401  0.527740  1
  O  O447  1  0.400795  0.647465  0.527674  1
  O  O448  1  0.900691  0.352364  0.486406  1
  O  O449  1  0.400604  0.352360  0.527752  1
  O  O450  1  0.900641  0.647516  0.486381  1
  O  O451  1  0.099590  0.352415  0.486398  1
  O  O452  1  0.599722  0.647504  0.527715  1
  O  O453  1  0.626993  0.636272  0.426724  1
  O  O454  1  0.499980  0.535282  0.503331  1
  O  O455  1  0.500284  0.464565  0.503276  1
  O  O456  1  0.372911  0.635976  0.426699  1
  O  O457  1  0.872889  0.364162  0.587257  1
  O  O458  1  0.500197  0.584779  0.426698  1
  O  O459  1  -0.000000  0.535365  0.510556  1
  O  O460  1  0.500258  0.415423  0.426682  1
  O  O461  1  -0.000000  0.392901  0.508593  1
  O  O462  1  0.100462  0.499865  0.485874  1
  O  O463  1  0.600408  0.499912  0.528042  1
  O  O464  1  0.399802  0.499819  0.528027  1
  O  O465  1  0.899673  0.499833  0.485878  1
  O  O466  1  0.249475  0.500807  0.507079  1
  O  O467  1  0.750241  0.500998  0.507008  1
  O  O468  1  -0.000000  0.607265  0.508745  1
  O  O469  1  0.500042  0.392550  0.505428  1
  O  O470  1  0.500442  0.607288  0.505357  1
  O  O471  1  0.127218  0.636142  0.587165  1
  O  O472  1  0.372973  0.364207  0.426679  1
  O  O473  1  0.003619  0.750317  0.346172  1
  O  O474  1  0.497088  0.750029  0.346378  1
  O  O475  1  0.751140  0.891081  0.313220  1
  O  O476  1  0.749212  0.891038  0.379482  1
  O  O477  1  0.249045  0.891109  0.313191  1
  O  O478  1  0.251219  0.891135  0.379545  1
  O  O479  1  0.663045  0.924538  0.284961  1
  O  O480  1  0.837188  0.924725  0.407728  1
  O  O481  1  0.337458  0.924567  0.284891  1
  O  O482  1  0.162822  0.924391  0.407859  1
  O  O483  1  0.746083  0.963785  0.314033  1
  O  O484  1  0.753928  0.963777  0.378641  1
  O  O485  1  0.253419  0.963951  0.313606  1
  O  O486  1  0.246765  0.963957  0.379170  1
  O  O487  1  0.593155  0.925127  0.318141  1
  O  O488  1  0.907016  0.925216  0.374561  1
  O  O489  1  0.406593  0.925450  0.318135  1
  O  O490  1  0.093607  0.925463  0.374605  1
  O  O491  1  0.757038  0.681853  0.316301  1
  O  O492  1  0.757065  0.817984  0.376424  1
  O  O493  1  0.742818  0.681792  0.376531  1
  O  O494  1  0.742952  0.818080  0.316172  1
  O  O495  1  0.242575  0.818135  0.376516  1
  O  O496  1  0.242886  0.681766  0.316203  1
  O  O497  1  0.257345  0.818073  0.316306  1
  O  O498  1  0.257084  0.681871  0.376413  1
  O  O499  1  0.749963  0.859680  0.346336  1
  O  O500  1  0.250035  0.859827  0.346385  1
  O  O501  1  0.599449  0.852464  0.367017  1
  O  O502  1  0.900667  0.852427  0.325716  1
  O  O503  1  0.400517  0.852356  0.367047  1
  O  O504  1  0.099592  0.852419  0.325701  1
  O  O505  1  0.750014  0.749906  0.389428  1
  O  O506  1  0.750029  0.749952  0.303310  1
  O  O507  1  0.249992  0.749944  0.303377  1
  O  O508  1  0.250031  0.750001  0.389378  1
  O  O509  1  0.655485  0.697889  0.407818  1
  O  O510  1  0.655591  0.801959  0.284887  1
  O  O511  1  0.844398  0.697752  0.285036  1
  O  O512  1  0.844839  0.802070  0.407639  1
  O  O513  1  0.342941  0.802278  0.284814  1
  O  O514  1  0.342892  0.697593  0.407884  1
  O  O515  1  0.156910  0.802182  0.408023  1
  O  O516  1  0.157550  0.697716  0.284652  1
  O  O517  1  0.593448  0.722402  0.375146  1
  O  O518  1  0.593530  0.777533  0.317581  1
  O  O519  1  0.906562  0.722382  0.317636  1
  O  O520  1  0.906455  0.777343  0.374998  1
  O  O521  1  0.407606  0.777996  0.317132  1
  O  O522  1  0.407490  0.721919  0.375574  1
  O  O523  1  0.092451  0.777984  0.375631  1
  O  O524  1  0.092433  0.721711  0.317010  1
  O  O525  1  -0.000000  0.686408  0.266070  1
  O  O526  1  0.500032  0.678837  0.352540  1
  O  O527  1  0.000000  0.964798  0.350028  1
  O  O528  1  0.000000  0.821331  0.352642  1
  O  O529  1  -0.000000  0.678977  0.340270  1
  O  O530  1  0.500024  0.821187  0.340153  1
  O  O531  1  0.249961  0.998926  0.346384  1
  O  O532  1  0.499647  0.892740  0.344756  1
  O  O533  1  -0.000000  0.892851  0.347946  1
  O  O534  1  0.500406  0.964723  0.342695  1
  O  O535  1  0.500381  0.915228  0.266087  1
  O  O536  1  -0.000000  0.915225  0.426622  1
  O  O537  1  0.627217  0.863778  0.266134  1
  O  O538  1  0.872879  0.863934  0.426421  1
  O  O539  1  0.373044  0.864006  0.266078  1
  O  O540  1  0.500497  0.821235  0.513236  1
  O  O541  1  0.500519  0.678876  0.500881  1
  O  O542  1  0.497475  0.750155  0.506916  1
  O  O543  1  0.251277  0.891177  0.473809  1
  O  O544  1  0.249072  0.891149  0.540212  1
  O  O545  1  0.749214  0.891143  0.473834  1
  O  O546  1  0.750931  0.891122  0.540166  1
  O  O547  1  0.162514  0.924522  0.445527  1
  O  O548  1  0.337601  0.924575  0.568497  1
  O  O549  1  0.837064  0.924388  0.445436  1
  O  O550  1  0.663136  0.924365  0.568559  1
  O  O551  1  0.246600  0.963976  0.474227  1
  O  O552  1  0.253397  0.963969  0.539790  1
  O  O553  1  0.753607  0.963926  0.474197  1
  O  O554  1  0.746824  0.963903  0.539824  1
  O  O555  1  0.093530  0.925367  0.478787  1
  O  O556  1  0.406669  0.925472  0.535252  1
  O  O557  1  0.906969  0.925440  0.478636  1
  O  O558  1  0.593289  0.925556  0.535356  1
  O  O559  1  0.257149  0.681887  0.476984  1
  O  O560  1  0.257144  0.818120  0.537017  1
  O  O561  1  0.243017  0.681882  0.537052  1
  O  O562  1  0.243111  0.818184  0.476947  1
  O  O563  1  0.742847  0.818136  0.537148  1
  O  O564  1  0.743041  0.681860  0.476818  1
  O  O565  1  0.757235  0.818134  0.476866  1
  O  O566  1  0.757444  0.681915  0.537151  1
  O  O567  1  0.250015  0.860018  0.507003  1
  O  O568  1  0.750132  0.859798  0.507004  1
  O  O569  1  0.099412  0.852613  0.527657  1
  O  O570  1  0.400775  0.852581  0.486399  1
  O  O571  1  0.900544  0.852512  0.527677  1
  O  O572  1  0.599624  0.852562  0.486352  1
  O  O573  1  0.250683  0.749975  0.550001  1
  O  O574  1  0.250723  0.750071  0.464054  1
  O  O575  1  0.750733  0.749979  0.463947  1
  O  O576  1  0.750622  0.750072  0.550094  1
  O  O577  1  0.155533  0.697923  0.568273  1
  O  O578  1  0.155905  0.802128  0.445684  1
  O  O579  1  0.342864  0.697579  0.445498  1
  O  O580  1  0.343161  0.802490  0.568485  1
  O  O581  1  0.842646  0.802457  0.445302  1
  O  O582  1  0.843246  0.697726  0.568656  1
  O  O583  1  0.655776  0.802126  0.568457  1
  O  O584  1  0.655834  0.698046  0.445532  1
  O  O585  1  0.093904  0.722679  0.535637  1
  O  O586  1  0.093852  0.777550  0.478303  1
  O  O587  1  0.407936  0.721769  0.477802  1
  O  O588  1  0.407779  0.778101  0.536167  1
  O  O589  1  0.907991  0.778326  0.477627  1
  O  O590  1  0.907884  0.721961  0.536293  1
  O  O591  1  0.593760  0.777442  0.535812  1
  O  O592  1  0.593862  0.722455  0.478202  1
  O  O593  1  -0.000000  0.821126  0.500865  1
  O  O594  1  -0.000000  0.678779  0.513258  1
  O  O595  1  0.500125  0.964645  0.510629  1
  O  O596  1  0.000000  0.964729  0.503297  1
  O  O597  1  0.500388  0.892746  0.508742  1
  O  O598  1  -0.000000  0.892725  0.505301  1
  O  O599  1  0.996465  0.749836  0.506869  1
  O  O600  1  0.749891  0.998808  0.507022  1
  O  O601  1  0.250126  0.998947  0.507006  1
  O  O602  1  0.499589  0.686415  0.426716  1
  O  O603  1  0.000000  0.813620  0.426742  1
  O  O604  1  0.127045  0.863845  0.426781  1
  O  O605  1  0.100328  0.000000  0.528057  1
  O  O606  1  0.499731  0.813624  0.587319  1
  O  O607  1  0.399757  0.000000  0.688719  1
  O  O608  1  0.600435  0.000000  0.688716  1
  O  O609  1  0.100435  0.000000  0.646558  1
  O  O610  1  0.497566  0.250324  0.667453  1
  O  O611  1  0.996790  0.250151  0.667708  1
  O  O612  1  0.251073  0.108936  0.700867  1
  O  O613  1  0.249325  0.108955  0.634435  1
  O  O614  1  0.749296  0.108918  0.700869  1
  O  O615  1  0.751218  0.108879  0.634434  1
  O  O616  1  0.162952  0.075254  0.729108  1
  O  O617  1  0.337336  0.075175  0.606190  1
  O  O618  1  0.837338  0.075443  0.729216  1
  O  O619  1  0.662895  0.075557  0.606092  1
  O  O620  1  0.246201  0.036237  0.700008  1
  O  O621  1  0.254154  0.036247  0.635327  1
  O  O622  1  0.753472  0.036084  0.700459  1
  O  O623  1  0.746693  0.036064  0.634809  1
  O  O624  1  0.093211  0.074844  0.695908  1
  O  O625  1  0.407149  0.074875  0.639375  1
  O  O626  1  0.906745  0.074498  0.695983  1
  O  O627  1  0.593603  0.074576  0.639344  1
  O  O628  1  0.257024  0.181971  0.637643  1
  O  O629  1  0.257383  0.317953  0.697685  1
  O  O630  1  0.243203  0.181929  0.697715  1
  O  O631  1  0.242885  0.318036  0.637562  1
  O  O632  1  0.742824  0.317991  0.697797  1
  O  O633  1  0.742882  0.181858  0.637517  1
  O  O634  1  0.757345  0.317942  0.637567  1
  O  O635  1  0.757434  0.181938  0.697705  1
  O  O636  1  0.250146  0.140050  0.667664  1
  O  O637  1  0.750099  0.140102  0.667638  1
  O  O638  1  0.099497  0.147383  0.647001  1
  O  O639  1  0.400814  0.147443  0.688311  1
  O  O640  1  0.900601  0.147572  0.646977  1
  O  O641  1  0.599724  0.147516  0.688345  1
  O  O642  1  0.250671  0.249921  0.710773  1
  O  O643  1  0.250738  0.250029  0.624569  1
  O  O644  1  0.750673  0.249880  0.624517  1
  O  O645  1  0.750736  0.249982  0.710800  1
  O  O646  1  0.155739  0.197691  0.728986  1
  O  O647  1  0.155677  0.302127  0.606270  1
  O  O648  1  0.342762  0.197341  0.606112  1
  O  O649  1  0.343520  0.302516  0.729155  1
  O  O650  1  0.842966  0.302469  0.606017  1
  O  O651  1  0.843168  0.197348  0.729243  1
  O  O652  1  0.655538  0.302070  0.729091  1
  O  O653  1  0.656010  0.197730  0.606168  1
  O  O654  1  0.093930  0.222554  0.696378  1
  O  O655  1  0.093821  0.277353  0.638908  1
  O  O656  1  0.407876  0.221764  0.638394  1
  O  O657  1  0.407843  0.277897  0.696831  1
  O  O658  1  0.907936  0.278058  0.638334  1
  O  O659  1  0.908034  0.221855  0.696965  1
  O  O660  1  0.593822  0.277282  0.696444  1
  O  O661  1  0.593700  0.222414  0.638773  1
  O  O662  1  0.499620  0.186169  0.587412  1
  O  O663  1  0.500453  0.321280  0.673953  1
  O  O664  1  0.500445  0.178988  0.661545  1
  O  O665  1  0.899706  0.000000  0.646554  1
  O  O666  1  0.750065  0.001222  0.667631  1
  O  O667  1  0.000000  0.107392  0.669370  1
  O  O668  1  0.500608  0.107402  0.665948  1
  O  O669  1  -0.000000  0.035443  0.671285  1
  O  O670  1  0.499827  0.035413  0.663981  1
  O  O671  1  -0.000000  0.178941  0.673800  1
  O  O672  1  -0.000000  0.321233  0.661400  1
  O  O673  1  -0.000000  0.313846  0.587373  1
  O  O674  1  0.656135  0.302273  0.766777  1
  O  O675  1  0.342982  0.302521  0.766757  1
  O  O676  1  0.499820  0.313817  0.748022  1
  O  O677  1  0.500068  0.464725  0.671374  1
  O  O678  1  -0.000000  0.535415  0.664057  1
  O  O679  1  -0.000000  0.464742  0.663920  1
  O  O680  1  0.500178  0.535353  0.671264  1
  O  O681  1  0.751189  0.608797  0.700813  1
  O  O682  1  0.251302  0.391017  0.634456  1
  O  O683  1  0.749114  0.608816  0.634511  1
  O  O684  1  0.249142  0.390975  0.700880  1
  O  O685  1  0.749215  0.390961  0.634458  1
  O  O686  1  0.249234  0.608834  0.700823  1
  O  O687  1  0.751167  0.390981  0.700847  1
  O  O688  1  0.251148  0.608781  0.634485  1
  O  O689  1  0.662943  0.575627  0.729154  1
  O  O690  1  0.162887  0.424679  0.606227  1
  O  O691  1  0.837358  0.575460  0.606180  1
  O  O692  1  0.337360  0.424786  0.729106  1
  O  O693  1  0.837230  0.424698  0.606200  1
  O  O694  1  0.337359  0.575400  0.729150  1
  O  O695  1  0.663058  0.424623  0.729108  1
  O  O696  1  0.162893  0.575599  0.606143  1
  O  O697  1  0.746724  0.535999  0.700455  1
  O  O698  1  0.246195  0.463720  0.635310  1
  O  O699  1  0.753464  0.535999  0.634903  1
  O  O700  1  0.253997  0.463701  0.699992  1
  O  O701  1  0.754051  0.463681  0.635323  1
  O  O702  1  0.253358  0.536019  0.700418  1
  O  O703  1  0.746293  0.463693  0.700021  1
  O  O704  1  0.246634  0.536005  0.634861  1
  O  O705  1  0.593441  0.574502  0.695934  1
  O  O706  1  0.093420  0.425033  0.639455  1
  O  O707  1  0.906770  0.574483  0.639396  1
  O  O708  1  0.406895  0.425078  0.695891  1
  O  O709  1  0.906978  0.425070  0.639399  1
  O  O710  1  0.406808  0.574432  0.695935  1
  O  O711  1  0.593366  0.425101  0.695900  1
  O  O712  1  0.093365  0.574535  0.639370  1
  O  O713  1  0.750038  0.640150  0.667677  1
  O  O714  1  0.250090  0.359833  0.667652  1
  O  O715  1  0.750136  0.359712  0.667665  1
  O  O716  1  0.249966  0.640100  0.667636  1
  O  O717  1  0.599471  0.647402  0.647018  1
  O  O718  1  0.099577  0.352354  0.688335  1
  O  O719  1  0.900630  0.647488  0.688319  1
  O  O720  1  0.400706  0.352309  0.647006  1
  O  O721  1  0.900614  0.352280  0.688339  1
  O  O722  1  0.400608  0.647426  0.647005  1
  O  O723  1  0.599658  0.352348  0.646980  1
  O  O724  1  0.099498  0.647372  0.688322  1
  O  O725  1  0.500188  0.392791  0.669194  1
  O  O726  1  0.873110  0.636107  0.587414  1
  O  O727  1  -0.000000  0.607392  0.665905  1
  O  O728  1  0.600460  0.499871  0.646570  1
  O  O729  1  0.100417  0.499871  0.688729  1
  O  O730  1  0.899749  0.499921  0.688732  1
  O  O731  1  0.399739  0.499921  0.646568  1
  O  O732  1  0.750012  0.500985  0.667675  1
  O  O733  1  0.250086  0.501018  0.667649  1
  O  O734  1  0.500000  0.607289  0.669396  1
  O  O735  1  -0.000000  0.392772  0.666137  1
  O  O736  1  0.127231  0.364002  0.587445  1
  O  O737  1  0.627215  0.363953  0.747901  1
  O  O738  1  -0.000000  0.415411  0.587348  1
  O  O739  1  -0.000000  0.584788  0.587322  1
  O  O740  1  0.663077  0.424552  0.766820  1
  O  O741  1  0.337457  0.575385  0.766845  1
  O  O742  1  0.337364  0.424758  0.766840  1
  O  O743  1  0.662968  0.575636  0.766819  1
  O  O744  1  0.626993  0.636272  0.748011  1
  O  O745  1  0.372911  0.635976  0.747986  1
  O  O746  1  0.500197  0.584779  0.747985  1
  O  O747  1  0.500258  0.415423  0.747969  1
  O  O748  1  0.372973  0.364207  0.747966  1
  O  O749  1  0.003619  0.750317  0.667459  1
  O  O750  1  0.497088  0.750029  0.667665  1
  O  O751  1  0.751140  0.891081  0.634508  1
  O  O752  1  0.749212  0.891038  0.700769  1
  O  O753  1  0.249045  0.891109  0.634478  1
  O  O754  1  0.251219  0.891135  0.700832  1
  O  O755  1  0.663045  0.924538  0.606248  1
  O  O756  1  0.837188  0.924725  0.729015  1
  O  O757  1  0.337458  0.924567  0.606178  1
  O  O758  1  0.162822  0.924391  0.729146  1
  O  O759  1  0.746083  0.963785  0.635320  1
  O  O760  1  0.753928  0.963777  0.699928  1
  O  O761  1  0.253419  0.963951  0.634893  1
  O  O762  1  0.246765  0.963957  0.700457  1
  O  O763  1  0.593155  0.925127  0.639428  1
  O  O764  1  0.907016  0.925216  0.695848  1
  O  O765  1  0.406593  0.925450  0.639422  1
  O  O766  1  0.093607  0.925463  0.695892  1
  O  O767  1  0.757038  0.681853  0.637588  1
  O  O768  1  0.757065  0.817984  0.697711  1
  O  O769  1  0.742818  0.681792  0.697818  1
  O  O770  1  0.742952  0.818080  0.637459  1
  O  O771  1  0.242575  0.818135  0.697803  1
  O  O772  1  0.242886  0.681766  0.637490  1
  O  O773  1  0.257345  0.818073  0.637593  1
  O  O774  1  0.257084  0.681871  0.697700  1
  O  O775  1  0.749963  0.859680  0.667623  1
  O  O776  1  0.250035  0.859827  0.667672  1
  O  O777  1  0.599449  0.852464  0.688304  1
  O  O778  1  0.900667  0.852427  0.647003  1
  O  O779  1  0.400517  0.852356  0.688334  1
  O  O780  1  0.099592  0.852419  0.646988  1
  O  O781  1  0.750014  0.749906  0.710715  1
  O  O782  1  0.750029  0.749952  0.624597  1
  O  O783  1  0.249992  0.749944  0.624664  1
  O  O784  1  0.250031  0.750001  0.710665  1
  O  O785  1  0.655485  0.697889  0.729105  1
  O  O786  1  0.655591  0.801959  0.606174  1
  O  O787  1  0.844398  0.697752  0.606323  1
  O  O788  1  0.844839  0.802070  0.728926  1
  O  O789  1  0.342941  0.802278  0.606101  1
  O  O790  1  0.342892  0.697593  0.729172  1
  O  O791  1  0.156910  0.802182  0.729310  1
  O  O792  1  0.157550  0.697716  0.605939  1
  O  O793  1  0.593448  0.722402  0.696433  1
  O  O794  1  0.593530  0.777533  0.638868  1
  O  O795  1  0.906562  0.722382  0.638923  1
  O  O796  1  0.906455  0.777343  0.696285  1
  O  O797  1  0.407606  0.777996  0.638419  1
  O  O798  1  0.407490  0.721919  0.696861  1
  O  O799  1  0.092451  0.777984  0.696918  1
  O  O800  1  0.092433  0.721711  0.638297  1
  O  O801  1  -0.000000  0.686408  0.587357  1
  O  O802  1  0.500032  0.678837  0.673827  1
  O  O803  1  0.000000  0.964798  0.671315  1
  O  O804  1  -0.000000  0.821331  0.673929  1
  O  O805  1  -0.000000  0.678977  0.661557  1
  O  O806  1  0.500024  0.821187  0.661440  1
  O  O807  1  0.249961  0.998926  0.667671  1
  O  O808  1  0.499647  0.892740  0.666043  1
  O  O809  1  -0.000000  0.892851  0.669233  1
  O  O810  1  0.500406  0.964723  0.663982  1
  O  O811  1  0.500381  0.915228  0.587374  1
  O  O812  1  0.627217  0.863778  0.587421  1
  O  O813  1  0.373044  0.864006  0.587365  1
  O  O814  1  0.342864  0.697579  0.766785  1
  O  O815  1  0.655834  0.698046  0.766819  1
  O  O816  1  0.499589  0.686415  0.748003  1
  Si  Si817  1  0.611867  0.320080  0.105362  1
  Si  Si818  1  0.692049  0.072825  0.224912  1
  Si  Si819  1  0.808183  0.072840  0.146562  1
  Si  Si820  1  0.308113  0.072821  0.224936  1
  Si  Si821  1  0.191925  0.072867  0.146494  1
  Si  Si822  1  0.713754  0.144706  0.164187  1
  Si  Si823  1  0.786352  0.144729  0.207312  1
  Si  Si824  1  0.286310  0.144689  0.164161  1
  Si  Si825  1  0.213861  0.144714  0.207294  1
  Si  Si826  1  0.686188  0.213749  0.226854  1
  Si  Si827  1  0.686432  0.286375  0.144560  1
  Si  Si828  1  0.813724  0.213702  0.144620  1
  Si  Si829  1  0.813908  0.286273  0.226798  1
  Si  Si830  1  0.313570  0.286401  0.144541  1
  Si  Si831  1  0.313763  0.213689  0.226883  1
  Si  Si832  1  0.186389  0.286355  0.226953  1
  Si  Si833  1  0.186547  0.213601  0.144469  1
  Si  Si834  1  0.387857  0.320325  0.105406  1
  Si  Si835  1  0.612787  0.092038  0.265951  1
  Si  Si836  1  0.387204  0.091736  0.266019  1
  Si  Si837  1  0.500052  0.072584  0.201318  1
  Si  Si838  1  -0.000000  0.072817  0.170159  1
  Si  Si839  1  0.500015  0.146088  0.176416  1
  Si  Si840  1  -0.000000  0.146283  0.195120  1
  Si  Si841  1  0.499973  0.218771  0.201792  1
  Si  Si842  1  0.500008  0.281185  0.169585  1
  Si  Si843  1  -0.000000  0.218879  0.169588  1
  Si  Si844  1  0.000000  0.281261  0.201813  1
  Si  Si845  1  -0.000000  0.000000  0.195654  1
  Si  Si846  1  0.887961  0.320285  0.265963  1
  Si  Si847  1  0.387672  0.179630  0.266029  1
  Si  Si848  1  0.613011  0.407991  0.105383  1
  Si  Si849  1  0.192153  0.572752  0.224997  1
  Si  Si850  1  0.691997  0.427092  0.146469  1
  Si  Si851  1  0.308239  0.572774  0.146466  1
  Si  Si852  1  0.808171  0.427171  0.224963  1
  Si  Si853  1  0.308288  0.427109  0.146489  1
  Si  Si854  1  0.808193  0.572775  0.225016  1
  Si  Si855  1  0.192020  0.427145  0.225015  1
  Si  Si856  1  0.692081  0.572829  0.146435  1
  Si  Si857  1  0.213734  0.644546  0.164190  1
  Si  Si858  1  0.713859  0.355315  0.207289  1
  Si  Si859  1  0.286538  0.644565  0.207282  1
  Si  Si860  1  0.786466  0.355327  0.164171  1
  Si  Si861  1  0.286335  0.355316  0.207328  1
  Si  Si862  1  0.786390  0.644649  0.164163  1
  Si  Si863  1  0.213837  0.355329  0.164201  1
  Si  Si864  1  0.714009  0.644647  0.207296  1
  Si  Si865  1  0.387416  0.408217  0.105396  1
  Si  Si866  1  0.215197  0.499991  0.163961  1
  Si  Si867  1  0.715081  0.500055  0.207496  1
  Si  Si868  1  0.285169  0.499980  0.207529  1
  Si  Si869  1  0.784966  0.500028  0.163918  1
  Si  Si870  1  0.000000  0.572478  0.201358  1
  Si  Si871  1  0.500174  0.427160  0.170113  1
  Si  Si872  1  0.500200  0.572589  0.170104  1
  Si  Si873  1  -0.000000  0.427464  0.201367  1
  Si  Si874  1  -0.000000  0.646025  0.176464  1
  Si  Si875  1  0.500075  0.353764  0.195120  1
  Si  Si876  1  0.500306  0.646061  0.195059  1
  Si  Si877  1  0.000000  0.353960  0.176466  1
  Si  Si878  1  -0.000000  0.499968  0.175689  1
  Si  Si879  1  0.500112  0.499892  0.195633  1
  Si  Si880  1  0.112867  0.592124  0.266005  1
  Si  Si881  1  0.612914  0.592237  0.105413  1
  Si  Si882  1  0.387375  0.591974  0.105419  1
  Si  Si883  1  0.191992  0.927206  0.146416  1
  Si  Si884  1  0.308148  0.927228  0.225032  1
  Si  Si885  1  0.808234  0.927168  0.146356  1
  Si  Si886  1  0.692023  0.927172  0.225068  1
  Si  Si887  1  0.213675  0.855479  0.207266  1
  Si  Si888  1  0.286542  0.855484  0.164178  1
  Si  Si889  1  0.786273  0.855384  0.207285  1
  Si  Si890  1  0.713891  0.855412  0.164154  1
  Si  Si891  1  0.186572  0.713781  0.226673  1
  Si  Si892  1  0.186700  0.786303  0.144734  1
  Si  Si893  1  0.313708  0.713538  0.144614  1
  Si  Si894  1  0.313739  0.786483  0.226821  1
  Si  Si895  1  0.813710  0.786526  0.144447  1
  Si  Si896  1  0.813842  0.713600  0.226956  1
  Si  Si897  1  0.686524  0.786282  0.226828  1
  Si  Si898  1  0.686669  0.713755  0.144609  1
  Si  Si899  1  0.611647  0.680140  0.105422  1
  Si  Si900  1  0.785040  0.000000  0.207508  1
  Si  Si901  1  0.387625  0.679863  0.105404  1
  Si  Si902  1  0.215004  0.000000  0.207495  1
  Si  Si903  1  0.715161  0.000000  0.163934  1
  Si  Si904  1  0.285004  0.000000  0.163928  1
  Si  Si905  1  -0.000000  0.927437  0.170056  1
  Si  Si906  1  0.500139  0.927482  0.201392  1
  Si  Si907  1  0.000000  0.853973  0.195022  1
  Si  Si908  1  0.500256  0.853998  0.176449  1
  Si  Si909  1  0.000000  0.718812  0.201779  1
  Si  Si910  1  -0.000000  0.781270  0.169601  1
  Si  Si911  1  0.500256  0.718748  0.169632  1
  Si  Si912  1  0.500200  0.781240  0.201795  1
  Si  Si913  1  0.500082  0.000000  0.175714  1
  Si  Si914  1  0.112215  0.680024  0.265883  1
  Si  Si915  1  0.191929  0.072817  0.385596  1
  Si  Si916  1  0.308391  0.072814  0.307132  1
  Si  Si917  1  0.808151  0.072818  0.385735  1
  Si  Si918  1  0.692125  0.072842  0.306991  1
  Si  Si919  1  0.213764  0.144579  0.324826  1
  Si  Si920  1  0.286553  0.144597  0.367925  1
  Si  Si921  1  0.786350  0.144605  0.324789  1
  Si  Si922  1  0.714002  0.144602  0.367924  1
  Si  Si923  1  0.186633  0.213704  0.387408  1
  Si  Si924  1  0.186523  0.286206  0.305300  1
  Si  Si925  1  0.313694  0.213494  0.305196  1
  Si  Si926  1  0.313953  0.286365  0.387528  1
  Si  Si927  1  0.813813  0.286375  0.305114  1
  Si  Si928  1  0.813899  0.213495  0.387594  1
  Si  Si929  1  0.686491  0.286157  0.387489  1
  Si  Si930  1  0.686591  0.213657  0.305217  1
  Si  Si931  1  0.112153  0.179824  0.426582  1
  Si  Si932  1  0.111960  0.320127  0.266142  1
  Si  Si933  1  0.611675  0.179941  0.266041  1
  Si  Si934  1  0.785017  0.000000  0.324558  1
  Si  Si935  1  -0.000000  0.072655  0.362018  1
  Si  Si936  1  0.500399  0.072679  0.330715  1
  Si  Si937  1  -0.000000  0.146116  0.337055  1
  Si  Si938  1  0.500309  0.146126  0.355690  1
  Si  Si939  1  -0.000000  0.218829  0.362462  1
  Si  Si940  1  -0.000000  0.281234  0.330254  1
  Si  Si941  1  0.500176  0.218793  0.330233  1
  Si  Si942  1  0.500210  0.281197  0.362444  1
  Si  Si943  1  -0.000000  0.000000  0.336372  1
  Si  Si944  1  0.500089  0.000000  0.356321  1
  Si  Si945  1  0.715124  0.000000  0.368131  1
  Si  Si946  1  0.611867  0.320080  0.426649  1
  Si  Si947  1  0.692049  0.072825  0.546199  1
  Si  Si948  1  0.808183  0.072840  0.467849  1
  Si  Si949  1  0.308113  0.072821  0.546223  1
  Si  Si950  1  0.191925  0.072867  0.467781  1
  Si  Si951  1  0.713754  0.144706  0.485474  1
  Si  Si952  1  0.786352  0.144729  0.528599  1
  Si  Si953  1  0.286310  0.144689  0.485448  1
  Si  Si954  1  0.213861  0.144714  0.528581  1
  Si  Si955  1  0.686188  0.213749  0.548141  1
  Si  Si956  1  0.686432  0.286375  0.465847  1
  Si  Si957  1  0.813724  0.213702  0.465907  1
  Si  Si958  1  0.813908  0.286273  0.548085  1
  Si  Si959  1  0.313570  0.286401  0.465828  1
  Si  Si960  1  0.313763  0.213689  0.548170  1
  Si  Si961  1  0.186389  0.286355  0.548240  1
  Si  Si962  1  0.186547  0.213601  0.465756  1
  Si  Si963  1  0.888140  0.179744  0.426775  1
  Si  Si964  1  0.387857  0.320325  0.426693  1
  Si  Si965  1  0.612787  0.092038  0.587238  1
  Si  Si966  1  0.887515  0.091854  0.426794  1
  Si  Si967  1  0.387204  0.091736  0.587306  1
  Si  Si968  1  0.500052  0.072584  0.522605  1
  Si  Si969  1  0.000000  0.072817  0.491446  1
  Si  Si970  1  0.500015  0.146088  0.497703  1
  Si  Si971  1  -0.000000  0.146283  0.516407  1
  Si  Si972  1  0.499973  0.218771  0.523079  1
  Si  Si973  1  0.500008  0.281185  0.490872  1
  Si  Si974  1  -0.000000  0.218879  0.490876  1
  Si  Si975  1  -0.000000  0.281261  0.523100  1
  Si  Si976  1  -0.000000  0.000000  0.516941  1
  Si  Si977  1  0.887961  0.320285  0.587250  1
  Si  Si978  1  0.113088  0.091913  0.426683  1
  Si  Si979  1  0.387672  0.179630  0.587316  1
  Si  Si980  1  0.692066  0.572774  0.385680  1
  Si  Si981  1  0.192033  0.427110  0.307156  1
  Si  Si982  1  0.808141  0.572753  0.307084  1
  Si  Si983  1  0.308230  0.427123  0.385598  1
  Si  Si984  1  0.808254  0.427096  0.307139  1
  Si  Si985  1  0.308156  0.572741  0.385670  1
  Si  Si986  1  0.692061  0.427094  0.385598  1
  Si  Si987  1  0.191978  0.572770  0.307046  1
  Si  Si988  1  0.713726  0.644540  0.324833  1
  Si  Si989  1  0.213842  0.355289  0.367927  1
  Si  Si990  1  0.786379  0.644574  0.367944  1
  Si  Si991  1  0.286465  0.355288  0.324813  1
  Si  Si992  1  0.786354  0.355229  0.367944  1
  Si  Si993  1  0.286361  0.644536  0.324797  1
  Si  Si994  1  0.713927  0.355246  0.324810  1
  Si  Si995  1  0.213766  0.644528  0.367913  1
  Si  Si996  1  0.112904  0.408032  0.266088  1
  Si  Si997  1  0.887323  0.592089  0.266057  1
  Si  Si998  1  0.715156  0.500002  0.324594  1
  Si  Si999  1  0.215103  0.500020  0.368146  1
  Si  Si1000  1  0.785069  0.500027  0.368169  1
  Si  Si1001  1  0.285050  0.500049  0.324575  1
  Si  Si1002  1  0.500122  0.572521  0.362023  1
  Si  Si1003  1  -0.000000  0.427318  0.330775  1
  Si  Si1004  1  0.000000  0.572590  0.330726  1
  Si  Si1005  1  0.500142  0.427342  0.361977  1
  Si  Si1006  1  0.500020  0.646012  0.337081  1
  Si  Si1007  1  -0.000000  0.353850  0.355708  1
  Si  Si1008  1  0.000000  0.646078  0.355678  1
  Si  Si1009  1  0.500213  0.353868  0.337049  1
  Si  Si1010  1  0.500096  0.499970  0.336386  1
  Si  Si1011  1  0.000000  0.499992  0.356333  1
  Si  Si1012  1  0.887301  0.408179  0.266040  1
  Si  Si1013  1  0.613011  0.407991  0.426670  1
  Si  Si1014  1  0.192153  0.572752  0.546284  1
  Si  Si1015  1  0.691997  0.427092  0.467756  1
  Si  Si1016  1  0.308239  0.572774  0.467753  1
  Si  Si1017  1  0.808171  0.427171  0.546250  1
  Si  Si1018  1  0.308288  0.427109  0.467776  1
  Si  Si1019  1  0.808193  0.572775  0.546303  1
  Si  Si1020  1  0.192020  0.427145  0.546302  1
  Si  Si1021  1  0.692081  0.572829  0.467722  1
  Si  Si1022  1  0.213734  0.644546  0.485477  1
  Si  Si1023  1  0.713859  0.355315  0.528576  1
  Si  Si1024  1  0.286538  0.644565  0.528569  1
  Si  Si1025  1  0.786466  0.355327  0.485458  1
  Si  Si1026  1  0.286335  0.355316  0.528615  1
  Si  Si1027  1  0.786390  0.644649  0.485450  1
  Si  Si1028  1  0.213837  0.355329  0.485488  1
  Si  Si1029  1  0.714009  0.644647  0.528583  1
  Si  Si1030  1  0.387416  0.408217  0.426683  1
  Si  Si1031  1  0.215197  0.499991  0.485248  1
  Si  Si1032  1  0.715081  0.500055  0.528783  1
  Si  Si1033  1  0.285169  0.499980  0.528816  1
  Si  Si1034  1  0.784966  0.500028  0.485205  1
  Si  Si1035  1  -0.000000  0.572478  0.522645  1
  Si  Si1036  1  0.500174  0.427160  0.491400  1
  Si  Si1037  1  0.500200  0.572589  0.491391  1
  Si  Si1038  1  0.000000  0.427464  0.522654  1
  Si  Si1039  1  0.000000  0.646025  0.497751  1
  Si  Si1040  1  0.500075  0.353764  0.516407  1
  Si  Si1041  1  0.500306  0.646061  0.516346  1
  Si  Si1042  1  -0.000000  0.353960  0.497753  1
  Si  Si1043  1  -0.000000  0.499968  0.496976  1
  Si  Si1044  1  0.500112  0.499892  0.516920  1
  Si  Si1045  1  0.112867  0.592124  0.587292  1
  Si  Si1046  1  0.612914  0.592237  0.426700  1
  Si  Si1047  1  0.387375  0.591974  0.426706  1
  Si  Si1048  1  0.691924  0.927159  0.307182  1
  Si  Si1049  1  0.808207  0.927189  0.385503  1
  Si  Si1050  1  0.308061  0.927196  0.307073  1
  Si  Si1051  1  0.192118  0.927181  0.385680  1
  Si  Si1052  1  0.713720  0.855297  0.367897  1
  Si  Si1053  1  0.786416  0.855292  0.324788  1
  Si  Si1054  1  0.286266  0.855347  0.367948  1
  Si  Si1055  1  0.213848  0.855369  0.324818  1
  Si  Si1056  1  0.686196  0.713625  0.387456  1
  Si  Si1057  1  0.686271  0.786251  0.305258  1
  Si  Si1058  1  0.813700  0.713652  0.305359  1
  Si  Si1059  1  0.813806  0.786168  0.387338  1
  Si  Si1060  1  0.313491  0.786343  0.305208  1
  Si  Si1061  1  0.313395  0.713571  0.387504  1
  Si  Si1062  1  0.186423  0.786385  0.387599  1
  Si  Si1063  1  0.186660  0.713481  0.305108  1
  Si  Si1064  1  0.285079  0.000000  0.368160  1
  Si  Si1065  1  0.611777  0.819910  0.266042  1
  Si  Si1066  1  0.887087  0.907958  0.426560  1
  Si  Si1067  1  0.387570  0.908004  0.266057  1
  Si  Si1068  1  0.499890  0.927402  0.330763  1
  Si  Si1069  1  -0.000000  0.927481  0.361962  1
  Si  Si1070  1  0.499942  0.853899  0.355685  1
  Si  Si1071  1  -0.000000  0.853967  0.337056  1
  Si  Si1072  1  0.499776  0.718762  0.362449  1
  Si  Si1073  1  0.499840  0.781225  0.330269  1
  Si  Si1074  1  0.000000  0.718779  0.330246  1
  Si  Si1075  1  -0.000000  0.781251  0.362416  1
  Si  Si1076  1  0.215134  0.000000  0.324590  1
  Si  Si1077  1  0.888199  0.679978  0.266155  1
  Si  Si1078  1  0.888050  0.820062  0.426519  1
  Si  Si1079  1  0.387758  0.820120  0.266040  1
  Si  Si1080  1  0.613123  0.907820  0.266122  1
  Si  Si1081  1  0.191992  0.927206  0.467703  1
  Si  Si1082  1  0.308148  0.927228  0.546319  1
  Si  Si1083  1  0.808234  0.927168  0.467643  1
  Si  Si1084  1  0.692023  0.927172  0.546355  1
  Si  Si1085  1  0.213675  0.855479  0.528553  1
  Si  Si1086  1  0.286542  0.855484  0.485465  1
  Si  Si1087  1  0.786273  0.855384  0.528572  1
  Si  Si1088  1  0.713891  0.855412  0.485441  1
  Si  Si1089  1  0.186572  0.713781  0.547960  1
  Si  Si1090  1  0.186700  0.786303  0.466021  1
  Si  Si1091  1  0.313708  0.713538  0.465901  1
  Si  Si1092  1  0.313739  0.786483  0.548108  1
  Si  Si1093  1  0.813710  0.786526  0.465734  1
  Si  Si1094  1  0.813842  0.713600  0.548243  1
  Si  Si1095  1  0.686524  0.786282  0.548115  1
  Si  Si1096  1  0.686669  0.713755  0.465896  1
  Si  Si1097  1  0.611647  0.680140  0.426709  1
  Si  Si1098  1  0.112068  0.819963  0.426816  1
  Si  Si1099  1  0.785040  0.000000  0.528795  1
  Si  Si1100  1  0.387625  0.679863  0.426691  1
  Si  Si1101  1  0.215004  0.000000  0.528782  1
  Si  Si1102  1  0.715161  0.000000  0.485221  1
  Si  Si1103  1  0.285004  0.000000  0.485215  1
  Si  Si1104  1  -0.000000  0.927437  0.491343  1
  Si  Si1105  1  0.500139  0.927482  0.522679  1
  Si  Si1106  1  -0.000000  0.853973  0.516309  1
  Si  Si1107  1  0.500256  0.853998  0.497736  1
  Si  Si1108  1  -0.000000  0.718812  0.523066  1
  Si  Si1109  1  -0.000000  0.781270  0.490888  1
  Si  Si1110  1  0.500256  0.718748  0.490919  1
  Si  Si1111  1  0.500200  0.781240  0.523082  1
  Si  Si1112  1  0.500082  0.000000  0.497001  1
  Si  Si1113  1  0.112215  0.680024  0.587170  1
  Si  Si1114  1  0.112637  0.907859  0.426691  1
  Si  Si1115  1  0.191929  0.072817  0.706883  1
  Si  Si1116  1  0.308391  0.072814  0.628419  1
  Si  Si1117  1  0.808151  0.072818  0.707022  1
  Si  Si1118  1  0.692125  0.072842  0.628278  1
  Si  Si1119  1  0.213764  0.144579  0.646113  1
  Si  Si1120  1  0.286553  0.144597  0.689212  1
  Si  Si1121  1  0.786350  0.144605  0.646076  1
  Si  Si1122  1  0.714002  0.144602  0.689211  1
  Si  Si1123  1  0.186633  0.213704  0.708695  1
  Si  Si1124  1  0.186523  0.286206  0.626587  1
  Si  Si1125  1  0.313694  0.213494  0.626483  1
  Si  Si1126  1  0.313953  0.286365  0.708815  1
  Si  Si1127  1  0.813813  0.286375  0.626401  1
  Si  Si1128  1  0.813899  0.213495  0.708881  1
  Si  Si1129  1  0.686491  0.286157  0.708776  1
  Si  Si1130  1  0.686591  0.213657  0.626504  1
  Si  Si1131  1  0.111960  0.320127  0.587429  1
  Si  Si1132  1  0.611675  0.179941  0.587328  1
  Si  Si1133  1  0.785017  0.000000  0.645845  1
  Si  Si1134  1  -0.000000  0.072655  0.683305  1
  Si  Si1135  1  0.500399  0.072679  0.652002  1
  Si  Si1136  1  0.000000  0.146116  0.658342  1
  Si  Si1137  1  0.500309  0.146126  0.676977  1
  Si  Si1138  1  -0.000000  0.218829  0.683749  1
  Si  Si1139  1  -0.000000  0.281234  0.651541  1
  Si  Si1140  1  0.500176  0.218793  0.651520  1
  Si  Si1141  1  0.500210  0.281197  0.683731  1
  Si  Si1142  1  -0.000000  0.000000  0.657659  1
  Si  Si1143  1  0.500089  0.000000  0.677608  1
  Si  Si1144  1  0.715124  0.000000  0.689418  1
  Si  Si1145  1  0.611867  0.320080  0.747936  1
  Si  Si1146  1  0.387857  0.320325  0.747980  1
  Si  Si1147  1  0.692066  0.572774  0.706967  1
  Si  Si1148  1  0.192033  0.427110  0.628443  1
  Si  Si1149  1  0.808141  0.572753  0.628371  1
  Si  Si1150  1  0.308230  0.427123  0.706885  1
  Si  Si1151  1  0.808254  0.427096  0.628426  1
  Si  Si1152  1  0.308156  0.572741  0.706957  1
  Si  Si1153  1  0.692061  0.427094  0.706885  1
  Si  Si1154  1  0.191978  0.572770  0.628333  1
  Si  Si1155  1  0.713726  0.644540  0.646120  1
  Si  Si1156  1  0.213842  0.355289  0.689214  1
  Si  Si1157  1  0.786379  0.644574  0.689231  1
  Si  Si1158  1  0.286465  0.355288  0.646100  1
  Si  Si1159  1  0.786354  0.355229  0.689231  1
  Si  Si1160  1  0.286361  0.644536  0.646084  1
  Si  Si1161  1  0.713927  0.355246  0.646097  1
  Si  Si1162  1  0.213766  0.644528  0.689200  1
  Si  Si1163  1  0.112904  0.408032  0.587375  1
  Si  Si1164  1  0.887323  0.592089  0.587344  1
  Si  Si1165  1  0.715156  0.500002  0.645881  1
  Si  Si1166  1  0.215103  0.500020  0.689433  1
  Si  Si1167  1  0.785069  0.500027  0.689456  1
  Si  Si1168  1  0.285050  0.500049  0.645862  1
  Si  Si1169  1  0.500122  0.572521  0.683310  1
  Si  Si1170  1  -0.000000  0.427318  0.652062  1
  Si  Si1171  1  0.000000  0.572590  0.652013  1
  Si  Si1172  1  0.500142  0.427342  0.683264  1
  Si  Si1173  1  0.500020  0.646012  0.658368  1
  Si  Si1174  1  -0.000000  0.353850  0.676995  1
  Si  Si1175  1  -0.000000  0.646078  0.676965  1
  Si  Si1176  1  0.500213  0.353868  0.658336  1
  Si  Si1177  1  0.500096  0.499970  0.657673  1
  Si  Si1178  1  -0.000000  0.499992  0.677620  1
  Si  Si1179  1  0.887301  0.408179  0.587327  1
  Si  Si1180  1  0.613011  0.407991  0.747957  1
  Si  Si1181  1  0.387416  0.408217  0.747970  1
  Si  Si1182  1  0.612914  0.592237  0.747987  1
  Si  Si1183  1  0.387375  0.591974  0.747993  1
  Si  Si1184  1  0.691924  0.927159  0.628469  1
  Si  Si1185  1  0.808207  0.927189  0.706790  1
  Si  Si1186  1  0.308061  0.927196  0.628360  1
  Si  Si1187  1  0.192118  0.927181  0.706967  1
  Si  Si1188  1  0.713720  0.855297  0.689184  1
  Si  Si1189  1  0.786416  0.855292  0.646075  1
  Si  Si1190  1  0.286266  0.855347  0.689235  1
  Si  Si1191  1  0.213848  0.855369  0.646105  1
  Si  Si1192  1  0.686196  0.713625  0.708743  1
  Si  Si1193  1  0.686271  0.786251  0.626545  1
  Si  Si1194  1  0.813700  0.713652  0.626646  1
  Si  Si1195  1  0.813806  0.786168  0.708625  1
  Si  Si1196  1  0.313491  0.786343  0.626495  1
  Si  Si1197  1  0.313395  0.713571  0.708791  1
  Si  Si1198  1  0.186423  0.786385  0.708886  1
  Si  Si1199  1  0.186660  0.713481  0.626395  1
  Si  Si1200  1  0.285079  0.000000  0.689447  1
  Si  Si1201  1  0.611777  0.819910  0.587329  1
  Si  Si1202  1  0.387570  0.908004  0.587344  1
  Si  Si1203  1  0.499890  0.927402  0.652050  1
  Si  Si1204  1  0.000000  0.927481  0.683249  1
  Si  Si1205  1  0.499942  0.853899  0.676972  1
  Si  Si1206  1  0.000000  0.853967  0.658343  1
  Si  Si1207  1  0.499776  0.718762  0.683736  1
  Si  Si1208  1  0.499840  0.781225  0.651556  1
  Si  Si1209  1  -0.000000  0.718779  0.651533  1
  Si  Si1210  1  -0.000000  0.781251  0.683703  1
  Si  Si1211  1  0.215134  0.000000  0.645877  1
  Si  Si1212  1  0.888199  0.679978  0.587442  1
  Si  Si1213  1  0.387758  0.820120  0.587327  1
  Si  Si1214  1  0.613123  0.907820  0.587409  1
  Si  Si1215  1  0.611647  0.680140  0.747996  1
  Si  Si1216  1  0.387625  0.679863  0.747978  1
  H  H1217  1  0.343520  0.302516  0.073384  1
  H  H1218  1  0.655538  0.302070  0.073319  1
  H  H1219  1  0.837467  0.075199  0.111153  1
  H  H1220  1  0.163157  0.075373  0.111065  1
  H  H1221  1  0.844012  0.197706  0.111095  1
  H  H1222  1  0.156948  0.197697  0.110874  1
  H  H1223  1  0.662943  0.575627  0.073383  1
  H  H1224  1  0.337360  0.424786  0.073335  1
  H  H1225  1  0.337359  0.575400  0.073379  1
  H  H1226  1  0.663058  0.424623  0.073336  1
  H  H1227  1  0.655485  0.697889  0.073334  1
  H  H1228  1  0.342892  0.697593  0.073400  1
  H  H1229  1  0.162514  0.924522  0.111043  1
  H  H1230  1  0.837064  0.924388  0.110951  1
  H  H1231  1  0.155905  0.802128  0.111200  1
  H  H1232  1  0.842646  0.802457  0.110817  1
  H  H1233  1  0.162952  0.075254  0.742306  1
  H  H1234  1  0.837338  0.075443  0.742414  1
  H  H1235  1  0.155739  0.197691  0.742184  1
  H  H1236  1  0.843168  0.197348  0.742441  1
  H  H1237  1  0.656135  0.302273  0.779974  1
  H  H1238  1  0.342982  0.302521  0.779954  1
  H  H1239  1  0.663077  0.424552  0.780017  1
  H  H1240  1  0.337457  0.575385  0.780043  1
  H  H1241  1  0.337364  0.424758  0.780037  1
  H  H1242  1  0.662968  0.575636  0.780016  1
  H  H1243  1  0.837188  0.924725  0.742212  1
  H  H1244  1  0.162822  0.924391  0.742343  1
  H  H1245  1  0.844839  0.802070  0.742123  1
  H  H1246  1  0.156910  0.802182  0.742508  1
  H  H1247  1  0.342864  0.697579  0.779982  1
  H  H1248  1  0.655834  0.698046  0.780016  1
