# generated using pymatgen
data_Si36H2O73
_symmetry_space_group_name_H-M   'P 1'
_cell_length_a   13.80613488
_cell_length_b   20.14838188
_cell_length_c   80.06036837
_cell_angle_alpha   90.00000000
_cell_angle_beta   90.00000000
_cell_angle_gamma   90.00000000
_symmetry_Int_Tables_number   1
_chemical_formula_structural   Si36H2O73
_chemical_formula_sum   'Si288 H16 O584'
_cell_volume   22270.4949739
_cell_formula_units_Z   8
loop_
 _symmetry_equiv_pos_site_id
 _symmetry_equiv_pos_as_xyz
  1  'x, y, z'
loop_
 _atom_site_type_symbol
 _atom_site_label
 _atom_site_symmetry_multiplicity
 _atom_site_fract_x
 _atom_site_fract_y
 _atom_site_fract_z
 _atom_site_occupancy
  O  O1  1  0.759298  0.627433  0.268678  1
  O  O2  1  0.240481  0.627458  0.268660  1
  O  O3  1  0.599935  0.574632  0.280644  1
  O  O4  1  0.399960  0.574819  0.280633  1
  O  O5  1  0.249558  0.000000  0.262100  1
  O  O6  1  0.843775  0.913027  0.212787  1
  O  O7  1  0.155483  0.913392  0.212686  1
  O  O8  1  0.843780  0.913303  0.245440  1
  O  O9  1  0.156296  0.913154  0.245358  1
  O  O10  1  0.906983  0.951865  0.273640  1
  O  O11  1  0.092237  0.951408  0.273518  1
  O  O12  1  0.757590  0.880867  0.272265  1
  O  O13  1  0.242222  0.880895  0.272248  1
  O  O14  1  0.598916  0.823224  0.281248  1
  O  O15  1  0.400950  0.823243  0.281241  1
  O  O16  1  0.745619  0.754387  0.270475  1
  O  O17  1  0.254291  0.754403  0.270454  1
  O  O18  1  0.836562  0.703425  0.213090  1
  O  O19  1  0.163363  0.703387  0.213072  1
  O  O20  1  0.836460  0.703367  0.245184  1
  O  O21  1  0.163481  0.703549  0.245163  1
  O  O22  1  0.907266  0.699447  0.273456  1
  O  O23  1  0.092577  0.699532  0.273437  1
  O  O24  1  -0.000000  0.751239  0.297060  1
  O  O25  1  -0.000000  0.625252  0.293504  1
  O  O26  1  -0.000000  0.876736  0.293072  1
  O  O27  1  0.875227  0.807735  0.229154  1
  O  O28  1  0.124676  0.807805  0.229052  1
  O  O29  1  -0.000000  0.896438  0.229118  1
  O  O30  1  -0.000000  0.717546  0.229140  1
  O  O31  1  0.749422  -0.000000  0.262105  1
  O  O32  1  -0.000000  0.501087  0.298060  1
  O  O33  1  0.249910  0.499890  0.276085  1
  O  O34  1  0.740184  0.372379  0.268636  1
  O  O35  1  0.259642  0.372393  0.268659  1
  O  O36  1  0.899976  0.423985  0.280632  1
  O  O37  1  0.099936  0.424111  0.280637  1
  O  O38  1  0.499950  0.250100  0.297228  1
  O  O39  1  0.656733  0.086754  0.245307  1
  O  O40  1  0.344424  0.086550  0.245576  1
  O  O41  1  0.655353  0.086502  0.212643  1
  O  O42  1  0.343349  0.086781  0.212911  1
  O  O43  1  0.592018  0.048768  0.273413  1
  O  O44  1  0.406603  0.047575  0.273867  1
  O  O45  1  0.742477  0.118887  0.272234  1
  O  O46  1  0.257369  0.118836  0.272311  1
  O  O47  1  0.901024  0.176810  0.281286  1
  O  O48  1  0.098814  0.176806  0.281302  1
  O  O49  1  0.749814  0.188374  0.298575  1
  O  O50  1  0.754355  0.245389  0.270430  1
  O  O51  1  0.245541  0.245356  0.270426  1
  O  O52  1  0.663519  0.296268  0.245120  1
  O  O53  1  0.336488  0.296539  0.245141  1
  O  O54  1  0.663366  0.296536  0.213039  1
  O  O55  1  0.336484  0.296292  0.213059  1
  O  O56  1  0.592584  0.300217  0.273391  1
  O  O57  1  0.407258  0.300249  0.273417  1
  O  O58  1  0.500020  0.376298  0.293102  1
  O  O59  1  0.499848  0.124563  0.292791  1
  O  O60  1  -0.000000  0.001665  0.298235  1
  O  O61  1  0.624663  0.192064  0.229007  1
  O  O62  1  0.375275  0.192084  0.229189  1
  O  O63  1  0.499966  0.103378  0.229130  1
  O  O64  1  0.499967  0.282329  0.229099  1
  O  O65  1  0.750106  0.499860  0.276086  1
  O  O66  1  0.749945  0.413090  0.298576  1
  O  O67  1  0.759724  0.627494  0.189573  1
  O  O68  1  0.240267  0.627517  0.189557  1
  O  O69  1  0.259281  0.627529  0.129688  1
  O  O70  1  0.740769  0.627540  0.129711  1
  O  O71  1  0.600006  0.575846  0.177585  1
  O  O72  1  0.399978  0.575843  0.177582  1
  O  O73  1  0.099939  0.574822  0.141708  1
  O  O74  1  0.900091  0.574799  0.141713  1
  O  O75  1  0.750052  0.586759  0.159645  1
  O  O76  1  0.249978  0.586772  0.159632  1
  O  O77  1  0.749987  0.500010  0.137143  1
  O  O78  1  0.750571  -0.000000  0.123154  1
  O  O79  1  0.907749  0.951663  0.184671  1
  O  O80  1  0.093295  0.952537  0.184409  1
  O  O81  1  0.407918  0.951228  0.134464  1
  O  O82  1  0.593314  0.952426  0.134915  1
  O  O83  1  0.757620  0.881013  0.185913  1
  O  O84  1  0.242370  0.881024  0.185929  1
  O  O85  1  0.257656  0.880970  0.133289  1
  O  O86  1  0.742317  0.881010  0.133363  1
  O  O87  1  0.598888  0.823057  0.176945  1
  O  O88  1  0.401074  0.823118  0.176943  1
  O  O89  1  0.098992  0.823253  0.142276  1
  O  O90  1  0.901062  0.823317  0.142295  1
  O  O91  1  0.750034  0.811312  0.159637  1
  O  O92  1  0.250011  0.811493  0.159624  1
  O  O93  1  0.745655  0.754500  0.187808  1
  O  O94  1  0.254305  0.754531  0.187787  1
  O  O95  1  0.245702  0.754472  0.131475  1
  O  O96  1  0.754368  0.754523  0.131456  1
  O  O97  1  0.907356  0.699592  0.184799  1
  O  O98  1  0.092630  0.699608  0.184785  1
  O  O99  1  0.407335  0.699387  0.134430  1
  O  O100  1  0.592764  0.699446  0.134468  1
  O  O101  1  -0.000000  0.750502  0.161062  1
  O  O102  1  0.499898  0.749689  0.158255  1
  O  O103  1  -0.000000  0.624666  0.164836  1
  O  O104  1  0.499989  0.623506  0.154168  1
  O  O105  1  -0.000000  0.500635  0.160057  1
  O  O106  1  -0.000000  0.875785  0.165398  1
  O  O107  1  0.500080  0.875194  0.153792  1
  O  O108  1  0.249998  0.500005  0.137143  1
  O  O109  1  0.496845  -0.000000  0.159747  1
  O  O110  1  0.249980  0.500008  0.182136  1
  O  O111  1  0.250579  -0.000000  0.196140  1
  O  O112  1  0.997818  -0.000000  0.159491  1
  O  O113  1  0.750400  -0.000000  0.196123  1
  O  O114  1  0.499992  0.499103  0.160103  1
  O  O115  1  0.240687  0.372455  0.129716  1
  O  O116  1  0.759280  0.372466  0.129700  1
  O  O117  1  0.740250  0.372458  0.189542  1
  O  O118  1  0.259798  0.372482  0.189565  1
  O  O119  1  0.400060  0.425172  0.141703  1
  O  O120  1  0.599922  0.425172  0.141701  1
  O  O121  1  0.899990  0.424137  0.177589  1
  O  O122  1  0.100032  0.424112  0.177593  1
  O  O123  1  0.250046  0.413254  0.159643  1
  O  O124  1  0.749979  0.413256  0.159631  1
  O  O125  1  0.093172  0.047890  0.134777  1
  O  O126  1  0.907901  0.048789  0.134510  1
  O  O127  1  0.593292  0.047478  0.184356  1
  O  O128  1  0.407916  0.048707  0.184804  1
  O  O129  1  0.242375  0.118979  0.133272  1
  O  O130  1  0.757598  0.118971  0.133284  1
  O  O131  1  0.742420  0.118893  0.185916  1
  O  O132  1  0.257527  0.118958  0.185992  1
  O  O133  1  0.400993  0.176614  0.142255  1
  O  O134  1  0.598944  0.176659  0.142250  1
  O  O135  1  0.901091  0.176785  0.176954  1
  O  O136  1  0.098927  0.176863  0.176975  1
  O  O137  1  0.250018  0.188268  0.159632  1
  O  O138  1  0.749997  0.188423  0.159616  1
  O  O139  1  0.254305  0.245478  0.131502  1
  O  O140  1  0.745632  0.245496  0.131481  1
  O  O141  1  0.754340  0.245418  0.187767  1
  O  O142  1  0.245687  0.245487  0.187753  1
  O  O143  1  0.092685  0.300499  0.134472  1
  O  O144  1  0.907276  0.300514  0.134457  1
  O  O145  1  0.592656  0.300286  0.184754  1
  O  O146  1  0.407406  0.300335  0.184785  1
  O  O147  1  -0.000000  0.249881  0.158217  1
  O  O148  1  0.499910  0.249058  0.161093  1
  O  O149  1  -0.000000  0.376164  0.154220  1
  O  O150  1  0.499986  0.374993  0.164777  1
  O  O151  1  -0.000000  0.124231  0.153922  1
  O  O152  1  0.500069  0.123633  0.165254  1
  O  O153  1  0.250455  -0.000000  0.123131  1
  O  O154  1  0.749989  0.499993  0.182137  1
  O  O155  1  0.344683  0.913357  0.073694  1
  O  O156  1  0.656495  0.913137  0.073963  1
  O  O157  1  0.343274  0.913056  0.106355  1
  O  O158  1  0.655443  0.913338  0.106622  1
  O  O159  1  0.336558  0.703212  0.074084  1
  O  O160  1  0.663541  0.703583  0.074094  1
  O  O161  1  0.336395  0.703509  0.106168  1
  O  O162  1  0.663445  0.703245  0.106186  1
  O  O163  1  0.375209  0.807707  0.090047  1
  O  O164  1  0.624719  0.807728  0.090238  1
  O  O165  1  0.499969  0.896365  0.090181  1
  O  O166  1  0.499981  0.717495  0.090142  1
  O  O167  1  0.155835  0.086443  0.106491  1
  O  O168  1  0.843403  0.086788  0.106386  1
  O  O169  1  0.155857  0.086764  0.073819  1
  O  O170  1  0.844216  0.086610  0.073735  1
  O  O171  1  0.163505  0.296523  0.106212  1
  O  O172  1  0.836388  0.296459  0.106193  1
  O  O173  1  0.163402  0.296419  0.074138  1
  O  O174  1  0.836515  0.296573  0.074116  1
  O  O175  1  0.124668  0.192094  0.090202  1
  O  O176  1  0.875206  0.192168  0.090101  1
  O  O177  1  -0.000000  0.103458  0.090157  1
  O  O178  1  -0.000000  0.282378  0.090178  1
  O  O179  1  0.759298  0.627433  0.546590  1
  O  O180  1  0.240481  0.627458  0.546572  1
  O  O181  1  0.599935  0.574632  0.558556  1
  O  O182  1  0.399960  0.574819  0.558545  1
  O  O183  1  0.249558  -0.000000  0.540012  1
  O  O184  1  0.843775  0.913027  0.490699  1
  O  O185  1  0.155483  0.913392  0.490598  1
  O  O186  1  0.843780  0.913303  0.523352  1
  O  O187  1  0.156296  0.913154  0.523270  1
  O  O188  1  0.906983  0.951865  0.551552  1
  O  O189  1  0.092237  0.951408  0.551430  1
  O  O190  1  0.757590  0.880867  0.550177  1
  O  O191  1  0.242222  0.880895  0.550160  1
  O  O192  1  0.598916  0.823224  0.559160  1
  O  O193  1  0.400950  0.823243  0.559153  1
  O  O194  1  0.745619  0.754387  0.548387  1
  O  O195  1  0.254291  0.754403  0.548366  1
  O  O196  1  0.836562  0.703425  0.491002  1
  O  O197  1  0.163363  0.703387  0.490984  1
  O  O198  1  0.836460  0.703367  0.523096  1
  O  O199  1  0.163481  0.703549  0.523075  1
  O  O200  1  0.907266  0.699447  0.551368  1
  O  O201  1  0.092577  0.699532  0.551349  1
  O  O202  1  -0.000000  0.751239  0.574972  1
  O  O203  1  -0.000000  0.625252  0.571416  1
  O  O204  1  0.000000  0.876736  0.570984  1
  O  O205  1  0.875227  0.807735  0.507067  1
  O  O206  1  0.124676  0.807805  0.506964  1
  O  O207  1  -0.000000  0.896438  0.507030  1
  O  O208  1  -0.000000  0.717546  0.507052  1
  O  O209  1  0.749422  0.000000  0.540017  1
  O  O210  1  -0.000000  0.501087  0.575972  1
  O  O211  1  0.249910  0.499890  0.553997  1
  O  O212  1  0.740184  0.372379  0.546548  1
  O  O213  1  0.259642  0.372393  0.546571  1
  O  O214  1  0.899976  0.423985  0.558544  1
  O  O215  1  0.099936  0.424111  0.558549  1
  O  O216  1  0.499950  0.250100  0.575141  1
  O  O217  1  0.656733  0.086754  0.523219  1
  O  O218  1  0.344424  0.086550  0.523488  1
  O  O219  1  0.655353  0.086502  0.490556  1
  O  O220  1  0.343349  0.086781  0.490823  1
  O  O221  1  0.592018  0.048768  0.551325  1
  O  O222  1  0.406603  0.047575  0.551779  1
  O  O223  1  0.742477  0.118887  0.550146  1
  O  O224  1  0.257369  0.118836  0.550223  1
  O  O225  1  0.901024  0.176810  0.559198  1
  O  O226  1  0.098814  0.176806  0.559214  1
  O  O227  1  0.749814  0.188374  0.576487  1
  O  O228  1  0.754355  0.245389  0.548342  1
  O  O229  1  0.245541  0.245356  0.548338  1
  O  O230  1  0.663519  0.296268  0.523032  1
  O  O231  1  0.336488  0.296539  0.523053  1
  O  O232  1  0.663366  0.296536  0.490951  1
  O  O233  1  0.336484  0.296292  0.490971  1
  O  O234  1  0.592584  0.300217  0.551303  1
  O  O235  1  0.407258  0.300249  0.551329  1
  O  O236  1  0.500020  0.376298  0.571014  1
  O  O237  1  0.499848  0.124563  0.570703  1
  O  O238  1  -0.000000  0.001665  0.576147  1
  O  O239  1  0.624663  0.192064  0.506919  1
  O  O240  1  0.375275  0.192084  0.507101  1
  O  O241  1  0.499966  0.103378  0.507042  1
  O  O242  1  0.499967  0.282329  0.507011  1
  O  O243  1  0.750106  0.499860  0.553998  1
  O  O244  1  0.749945  0.413090  0.576488  1
  O  O245  1  0.759724  0.627494  0.467485  1
  O  O246  1  0.240267  0.627517  0.467469  1
  O  O247  1  0.259281  0.627529  0.407600  1
  O  O248  1  0.740769  0.627540  0.407623  1
  O  O249  1  0.600006  0.575846  0.455497  1
  O  O250  1  0.399978  0.575843  0.455494  1
  O  O251  1  0.099939  0.574822  0.419620  1
  O  O252  1  0.900091  0.574799  0.419625  1
  O  O253  1  0.750052  0.586759  0.437557  1
  O  O254  1  0.249978  0.586772  0.437544  1
  O  O255  1  0.749987  0.500010  0.415055  1
  O  O256  1  0.750571  -0.000000  0.401066  1
  O  O257  1  0.907749  0.951663  0.462583  1
  O  O258  1  0.093295  0.952537  0.462321  1
  O  O259  1  0.407918  0.951228  0.412376  1
  O  O260  1  0.593314  0.952426  0.412827  1
  O  O261  1  0.757620  0.881013  0.463825  1
  O  O262  1  0.242370  0.881024  0.463841  1
  O  O263  1  0.257656  0.880970  0.411201  1
  O  O264  1  0.742317  0.881010  0.411275  1
  O  O265  1  0.598888  0.823057  0.454857  1
  O  O266  1  0.401074  0.823118  0.454855  1
  O  O267  1  0.098992  0.823253  0.420188  1
  O  O268  1  0.901062  0.823317  0.420207  1
  O  O269  1  0.750034  0.811312  0.437549  1
  O  O270  1  0.250011  0.811493  0.437536  1
  O  O271  1  0.745655  0.754500  0.465720  1
  O  O272  1  0.254305  0.754531  0.465699  1
  O  O273  1  0.245702  0.754472  0.409387  1
  O  O274  1  0.754368  0.754523  0.409369  1
  O  O275  1  0.907356  0.699592  0.462711  1
  O  O276  1  0.092630  0.699608  0.462697  1
  O  O277  1  0.407335  0.699387  0.412342  1
  O  O278  1  0.592764  0.699446  0.412380  1
  O  O279  1  -0.000000  0.750502  0.438974  1
  O  O280  1  0.499898  0.749689  0.436167  1
  O  O281  1  -0.000000  0.624666  0.442748  1
  O  O282  1  0.499989  0.623506  0.432080  1
  O  O283  1  0.000000  0.500635  0.437969  1
  O  O284  1  -0.000000  0.875785  0.443310  1
  O  O285  1  0.500080  0.875194  0.431704  1
  O  O286  1  0.249998  0.500005  0.415055  1
  O  O287  1  0.496845  -0.000000  0.437659  1
  O  O288  1  0.249980  0.500008  0.460048  1
  O  O289  1  0.250579  -0.000000  0.474053  1
  O  O290  1  0.997818  -0.000000  0.437403  1
  O  O291  1  0.750400  0.000000  0.474035  1
  O  O292  1  0.499992  0.499103  0.438015  1
  O  O293  1  0.240687  0.372455  0.407628  1
  O  O294  1  0.759280  0.372466  0.407612  1
  O  O295  1  0.740250  0.372458  0.467454  1
  O  O296  1  0.259798  0.372482  0.467477  1
  O  O297  1  0.400060  0.425172  0.419615  1
  O  O298  1  0.599922  0.425172  0.419613  1
  O  O299  1  0.899990  0.424137  0.455501  1
  O  O300  1  0.100032  0.424112  0.455505  1
  O  O301  1  0.250046  0.413254  0.437555  1
  O  O302  1  0.749979  0.413256  0.437544  1
  O  O303  1  0.093172  0.047890  0.412689  1
  O  O304  1  0.907901  0.048789  0.412422  1
  O  O305  1  0.593292  0.047478  0.462269  1
  O  O306  1  0.407916  0.048707  0.462716  1
  O  O307  1  0.242375  0.118979  0.411184  1
  O  O308  1  0.757598  0.118971  0.411196  1
  O  O309  1  0.742420  0.118893  0.463828  1
  O  O310  1  0.257527  0.118958  0.463904  1
  O  O311  1  0.400993  0.176614  0.420167  1
  O  O312  1  0.598944  0.176659  0.420162  1
  O  O313  1  0.901091  0.176785  0.454866  1
  O  O314  1  0.098927  0.176863  0.454887  1
  O  O315  1  0.250018  0.188268  0.437544  1
  O  O316  1  0.749997  0.188423  0.437528  1
  O  O317  1  0.254305  0.245478  0.409414  1
  O  O318  1  0.745632  0.245496  0.409393  1
  O  O319  1  0.754340  0.245418  0.465679  1
  O  O320  1  0.245687  0.245487  0.465665  1
  O  O321  1  0.092685  0.300499  0.412384  1
  O  O322  1  0.907276  0.300514  0.412369  1
  O  O323  1  0.592656  0.300286  0.462666  1
  O  O324  1  0.407406  0.300335  0.462697  1
  O  O325  1  -0.000000  0.249881  0.436129  1
  O  O326  1  0.499910  0.249058  0.439005  1
  O  O327  1  0.000000  0.376164  0.432132  1
  O  O328  1  0.499986  0.374993  0.442689  1
  O  O329  1  -0.000000  0.124231  0.431834  1
  O  O330  1  0.500069  0.123633  0.443166  1
  O  O331  1  0.250455  -0.000000  0.401043  1
  O  O332  1  0.749989  0.499993  0.460049  1
  O  O333  1  0.499677  0.500755  0.299012  1
  O  O334  1  0.749960  0.811522  0.298612  1
  O  O335  1  0.259197  0.627436  0.328494  1
  O  O336  1  0.740627  0.627434  0.328516  1
  O  O337  1  0.099925  0.574626  0.316519  1
  O  O338  1  0.899998  0.574756  0.316523  1
  O  O339  1  0.749934  0.586594  0.298591  1
  O  O340  1  0.249458  -0.000000  0.335100  1
  O  O341  1  0.344683  0.913357  0.351606  1
  O  O342  1  0.656495  0.913137  0.351875  1
  O  O343  1  0.343274  0.913056  0.384267  1
  O  O344  1  0.655443  0.913338  0.384534  1
  O  O345  1  0.406620  0.952531  0.323310  1
  O  O346  1  0.591988  0.951344  0.323766  1
  O  O347  1  0.257696  0.880954  0.324879  1
  O  O348  1  0.742123  0.880896  0.324950  1
  O  O349  1  0.098887  0.823277  0.315975  1
  O  O350  1  0.900913  0.823245  0.315994  1
  O  O351  1  0.245668  0.754436  0.326734  1
  O  O352  1  0.754134  0.754412  0.326758  1
  O  O353  1  0.336558  0.703212  0.351996  1
  O  O354  1  0.663541  0.703583  0.352006  1
  O  O355  1  0.336395  0.703509  0.384080  1
  O  O356  1  0.663445  0.703245  0.384099  1
  O  O357  1  0.407214  0.699326  0.323715  1
  O  O358  1  0.592572  0.699334  0.323743  1
  O  O359  1  0.499955  0.750733  0.300074  1
  O  O360  1  0.500015  0.624810  0.303718  1
  O  O361  1  0.499864  0.876126  0.304266  1
  O  O362  1  0.375209  0.807707  0.367959  1
  O  O363  1  0.624719  0.807728  0.368150  1
  O  O364  1  0.499969  0.896365  0.368093  1
  O  O365  1  0.499981  0.717495  0.368054  1
  O  O366  1  0.749568  0.000000  0.335093  1
  O  O367  1  0.249812  0.811461  0.298584  1
  O  O368  1  0.249935  0.586597  0.298579  1
  O  O369  1  0.240271  0.372371  0.328530  1
  O  O370  1  0.759508  0.372388  0.328512  1
  O  O371  1  0.399993  0.423933  0.316520  1
  O  O372  1  0.599899  0.424118  0.316511  1
  O  O373  1  0.749885  0.499877  0.321079  1
  O  O374  1  0.249920  0.413091  0.298589  1
  O  O375  1  0.155835  0.086443  0.384403  1
  O  O376  1  0.843403  0.086788  0.384298  1
  O  O377  1  0.155857  0.086764  0.351731  1
  O  O378  1  0.844216  0.086610  0.351647  1
  O  O379  1  0.092406  0.048101  0.323531  1
  O  O380  1  0.906827  0.047682  0.323406  1
  O  O381  1  0.242347  0.118817  0.324893  1
  O  O382  1  0.757428  0.118831  0.324879  1
  O  O383  1  0.401021  0.176758  0.315927  1
  O  O384  1  0.598828  0.176774  0.315919  1
  O  O385  1  0.249970  0.188491  0.298600  1
  O  O386  1  0.254263  0.245347  0.326767  1
  O  O387  1  0.745637  0.245357  0.326741  1
  O  O388  1  0.163505  0.296523  0.384124  1
  O  O389  1  0.836388  0.296459  0.384105  1
  O  O390  1  0.163402  0.296419  0.352051  1
  O  O391  1  0.836515  0.296573  0.352028  1
  O  O392  1  0.092599  0.300367  0.323770  1
  O  O393  1  0.907242  0.300442  0.323751  1
  O  O394  1  -0.000000  0.250576  0.299902  1
  O  O395  1  -0.000000  0.376717  0.304096  1
  O  O396  1  -0.000000  0.125145  0.304530  1
  O  O397  1  0.124668  0.192094  0.368114  1
  O  O398  1  0.875206  0.192168  0.368013  1
  O  O399  1  -0.000000  0.103458  0.368069  1
  O  O400  1  -0.000000  0.282378  0.368090  1
  O  O401  1  0.250145  0.499856  0.321080  1
  O  O402  1  0.503129  -0.000000  0.298638  1
  O  O403  1  0.843775  0.913027  0.768611  1
  O  O404  1  0.155483  0.913392  0.768510  1
  O  O405  1  0.843780  0.913303  0.801265  1
  O  O406  1  0.156296  0.913154  0.801182  1
  O  O407  1  0.836562  0.703425  0.768914  1
  O  O408  1  0.163363  0.703387  0.768896  1
  O  O409  1  0.836460  0.703367  0.801008  1
  O  O410  1  0.163481  0.703549  0.800987  1
  O  O411  1  0.875227  0.807735  0.784979  1
  O  O412  1  0.124676  0.807805  0.784876  1
  O  O413  1  -0.000000  0.896438  0.784942  1
  O  O414  1  -0.000000  0.717546  0.784964  1
  O  O415  1  0.656733  0.086754  0.801131  1
  O  O416  1  0.344424  0.086550  0.801400  1
  O  O417  1  0.655353  0.086502  0.768468  1
  O  O418  1  0.343349  0.086781  0.768735  1
  O  O419  1  0.663519  0.296268  0.800944  1
  O  O420  1  0.336488  0.296539  0.800965  1
  O  O421  1  0.663366  0.296536  0.768863  1
  O  O422  1  0.336484  0.296292  0.768883  1
  O  O423  1  0.624663  0.192064  0.784831  1
  O  O424  1  0.375275  0.192084  0.785013  1
  O  O425  1  0.499966  0.103378  0.784954  1
  O  O426  1  0.499967  0.282329  0.784923  1
  O  O427  1  0.759724  0.627494  0.745397  1
  O  O428  1  0.240267  0.627517  0.745381  1
  O  O429  1  0.259281  0.627529  0.685512  1
  O  O430  1  0.740769  0.627540  0.685535  1
  O  O431  1  0.600006  0.575846  0.733409  1
  O  O432  1  0.399978  0.575843  0.733406  1
  O  O433  1  0.099939  0.574822  0.697532  1
  O  O434  1  0.900091  0.574799  0.697537  1
  O  O435  1  0.750052  0.586759  0.715469  1
  O  O436  1  0.249978  0.586772  0.715456  1
  O  O437  1  0.749987  0.500010  0.692967  1
  O  O438  1  0.750571  -0.000000  0.678978  1
  O  O439  1  0.907749  0.951663  0.740495  1
  O  O440  1  0.093295  0.952537  0.740233  1
  O  O441  1  0.407918  0.951228  0.690288  1
  O  O442  1  0.593314  0.952426  0.690739  1
  O  O443  1  0.757620  0.881013  0.741737  1
  O  O444  1  0.242370  0.881024  0.741753  1
  O  O445  1  0.257656  0.880970  0.689113  1
  O  O446  1  0.742317  0.881010  0.689187  1
  O  O447  1  0.598888  0.823057  0.732769  1
  O  O448  1  0.401074  0.823118  0.732767  1
  O  O449  1  0.098992  0.823253  0.698101  1
  O  O450  1  0.901062  0.823317  0.698119  1
  O  O451  1  0.750034  0.811312  0.715461  1
  O  O452  1  0.250011  0.811493  0.715448  1
  O  O453  1  0.745655  0.754500  0.743632  1
  O  O454  1  0.254305  0.754531  0.743611  1
  O  O455  1  0.245702  0.754472  0.687299  1
  O  O456  1  0.754368  0.754523  0.687281  1
  O  O457  1  0.907356  0.699592  0.740623  1
  O  O458  1  0.092630  0.699608  0.740609  1
  O  O459  1  0.407335  0.699387  0.690254  1
  O  O460  1  0.592764  0.699446  0.690292  1
  O  O461  1  -0.000000  0.750502  0.716886  1
  O  O462  1  0.499898  0.749689  0.714079  1
  O  O463  1  -0.000000  0.624666  0.720660  1
  O  O464  1  0.499989  0.623506  0.709992  1
  O  O465  1  -0.000000  0.500635  0.715881  1
  O  O466  1  -0.000000  0.875785  0.721222  1
  O  O467  1  0.500080  0.875194  0.709616  1
  O  O468  1  0.249998  0.500005  0.692967  1
  O  O469  1  0.496845  -0.000000  0.715571  1
  O  O470  1  0.249980  0.500008  0.737960  1
  O  O471  1  0.250579  -0.000000  0.751965  1
  O  O472  1  0.997818  -0.000000  0.715315  1
  O  O473  1  0.750400  -0.000000  0.751947  1
  O  O474  1  0.499992  0.499103  0.715927  1
  O  O475  1  0.240687  0.372455  0.685540  1
  O  O476  1  0.759280  0.372466  0.685524  1
  O  O477  1  0.740250  0.372458  0.745366  1
  O  O478  1  0.259798  0.372482  0.745389  1
  O  O479  1  0.400060  0.425172  0.697527  1
  O  O480  1  0.599922  0.425172  0.697525  1
  O  O481  1  0.899990  0.424137  0.733413  1
  O  O482  1  0.100032  0.424112  0.733417  1
  O  O483  1  0.250046  0.413254  0.715468  1
  O  O484  1  0.749979  0.413256  0.715456  1
  O  O485  1  0.093172  0.047890  0.690601  1
  O  O486  1  0.907901  0.048789  0.690334  1
  O  O487  1  0.593292  0.047478  0.740181  1
  O  O488  1  0.407916  0.048707  0.740628  1
  O  O489  1  0.242375  0.118979  0.689096  1
  O  O490  1  0.757598  0.118971  0.689108  1
  O  O491  1  0.742420  0.118893  0.741740  1
  O  O492  1  0.257527  0.118958  0.741816  1
  O  O493  1  0.400993  0.176614  0.698079  1
  O  O494  1  0.598944  0.176659  0.698074  1
  O  O495  1  0.901091  0.176785  0.732778  1
  O  O496  1  0.098927  0.176863  0.732799  1
  O  O497  1  0.250018  0.188268  0.715456  1
  O  O498  1  0.749997  0.188423  0.715440  1
  O  O499  1  0.254305  0.245478  0.687326  1
  O  O500  1  0.745632  0.245496  0.687305  1
  O  O501  1  0.754340  0.245418  0.743591  1
  O  O502  1  0.245687  0.245487  0.743577  1
  O  O503  1  0.092685  0.300499  0.690296  1
  O  O504  1  0.907276  0.300514  0.690281  1
  O  O505  1  0.592656  0.300286  0.740578  1
  O  O506  1  0.407406  0.300335  0.740609  1
  O  O507  1  -0.000000  0.249881  0.714041  1
  O  O508  1  0.499910  0.249058  0.716917  1
  O  O509  1  -0.000000  0.376164  0.710044  1
  O  O510  1  0.499986  0.374993  0.720601  1
  O  O511  1  -0.000000  0.124231  0.709746  1
  O  O512  1  0.500069  0.123633  0.721078  1
  O  O513  1  0.250455  -0.000000  0.678955  1
  O  O514  1  0.749989  0.499993  0.737961  1
  O  O515  1  0.499677  0.500755  0.576924  1
  O  O516  1  0.749960  0.811522  0.576524  1
  O  O517  1  0.259197  0.627436  0.606406  1
  O  O518  1  0.740627  0.627434  0.606428  1
  O  O519  1  0.099925  0.574626  0.594431  1
  O  O520  1  0.899998  0.574756  0.594435  1
  O  O521  1  0.749934  0.586594  0.576503  1
  O  O522  1  0.249458  -0.000000  0.613012  1
  O  O523  1  0.344683  0.913357  0.629518  1
  O  O524  1  0.656495  0.913137  0.629787  1
  O  O525  1  0.343274  0.913056  0.662179  1
  O  O526  1  0.655443  0.913338  0.662446  1
  O  O527  1  0.406620  0.952531  0.601222  1
  O  O528  1  0.591988  0.951344  0.601678  1
  O  O529  1  0.257696  0.880954  0.602791  1
  O  O530  1  0.742123  0.880896  0.602862  1
  O  O531  1  0.098887  0.823277  0.593887  1
  O  O532  1  0.900913  0.823245  0.593906  1
  O  O533  1  0.245668  0.754436  0.604646  1
  O  O534  1  0.754134  0.754412  0.604670  1
  O  O535  1  0.336558  0.703212  0.629908  1
  O  O536  1  0.663541  0.703583  0.629918  1
  O  O537  1  0.336395  0.703509  0.661992  1
  O  O538  1  0.663445  0.703245  0.662011  1
  O  O539  1  0.407214  0.699326  0.601627  1
  O  O540  1  0.592572  0.699334  0.601655  1
  O  O541  1  0.499955  0.750733  0.577986  1
  O  O542  1  0.500015  0.624810  0.581630  1
  O  O543  1  0.499864  0.876126  0.582178  1
  O  O544  1  0.375209  0.807707  0.645871  1
  O  O545  1  0.624719  0.807728  0.646062  1
  O  O546  1  0.499969  0.896365  0.646005  1
  O  O547  1  0.499981  0.717495  0.645966  1
  O  O548  1  0.749568  0.000000  0.613005  1
  O  O549  1  0.249812  0.811461  0.576496  1
  O  O550  1  0.249935  0.586597  0.576491  1
  O  O551  1  0.240271  0.372371  0.606442  1
  O  O552  1  0.759508  0.372388  0.606424  1
  O  O553  1  0.399993  0.423933  0.594432  1
  O  O554  1  0.599899  0.424118  0.594423  1
  O  O555  1  0.749885  0.499877  0.598992  1
  O  O556  1  0.249920  0.413091  0.576501  1
  O  O557  1  0.155835  0.086443  0.662315  1
  O  O558  1  0.843403  0.086788  0.662210  1
  O  O559  1  0.155857  0.086764  0.629643  1
  O  O560  1  0.844216  0.086610  0.629559  1
  O  O561  1  0.092406  0.048101  0.601443  1
  O  O562  1  0.906827  0.047682  0.601318  1
  O  O563  1  0.242347  0.118817  0.602805  1
  O  O564  1  0.757428  0.118831  0.602791  1
  O  O565  1  0.401021  0.176758  0.593839  1
  O  O566  1  0.598828  0.176774  0.593831  1
  O  O567  1  0.249970  0.188491  0.576512  1
  O  O568  1  0.254263  0.245347  0.604679  1
  O  O569  1  0.745637  0.245357  0.604653  1
  O  O570  1  0.163505  0.296523  0.662036  1
  O  O571  1  0.836388  0.296459  0.662017  1
  O  O572  1  0.163402  0.296419  0.629963  1
  O  O573  1  0.836515  0.296573  0.629940  1
  O  O574  1  0.092599  0.300367  0.601682  1
  O  O575  1  0.907242  0.300442  0.601663  1
  O  O576  1  -0.000000  0.250576  0.577814  1
  O  O577  1  -0.000000  0.376717  0.582008  1
  O  O578  1  -0.000000  0.125145  0.582442  1
  O  O579  1  0.124668  0.192094  0.646026  1
  O  O580  1  0.875206  0.192168  0.645925  1
  O  O581  1  -0.000000  0.103458  0.645981  1
  O  O582  1  -0.000000  0.282378  0.646002  1
  O  O583  1  0.250145  0.499856  0.598992  1
  O  O584  1  0.503129  -0.000000  0.576550  1
  Si  Si585  1  0.499921  0.819266  0.290971  1
  Si  Si586  1  0.112376  0.730945  0.229115  1
  Si  Si587  1  0.887544  0.730877  0.229144  1
  Si  Si588  1  0.111559  0.884430  0.229041  1
  Si  Si589  1  0.888260  0.884359  0.229128  1
  Si  Si590  1  -0.000000  0.946444  0.284645  1
  Si  Si591  1  0.714644  0.572287  0.280244  1
  Si  Si592  1  0.285246  0.572358  0.280229  1
  Si  Si593  1  0.814132  0.937017  0.263209  1
  Si  Si594  1  0.185408  0.936847  0.263157  1
  Si  Si595  1  0.712785  0.817657  0.280264  1
  Si  Si596  1  0.287084  0.817679  0.280244  1
  Si  Si597  1  0.808848  0.695111  0.264039  1
  Si  Si598  1  0.190997  0.695161  0.264018  1
  Si  Si599  1  -0.000000  0.693189  0.284283  1
  Si  Si600  1  0.499928  0.569323  0.290074  1
  Si  Si601  1  0.387556  0.268940  0.229111  1
  Si  Si602  1  0.785263  0.427291  0.280222  1
  Si  Si603  1  0.214649  0.427355  0.280235  1
  Si  Si604  1  0.685555  0.063032  0.263120  1
  Si  Si605  1  0.314237  0.062693  0.263305  1
  Si  Si606  1  0.787162  0.182154  0.280239  1
  Si  Si607  1  0.212673  0.182189  0.280263  1
  Si  Si608  1  0.691033  0.304594  0.263975  1
  Si  Si609  1  0.308829  0.304633  0.263997  1
  Si  Si610  1  0.499970  0.307461  0.284213  1
  Si  Si611  1  -0.000000  0.430729  0.290034  1
  Si  Si612  1  0.500174  0.054156  0.284670  1
  Si  Si613  1  -0.000000  0.181435  0.291038  1
  Si  Si614  1  0.611617  0.115435  0.229013  1
  Si  Si615  1  0.388319  0.115456  0.229215  1
  Si  Si616  1  0.612374  0.268922  0.229073  1
  Si  Si617  1  0.499984  0.818645  0.167198  1
  Si  Si618  1  -0.000000  0.819183  0.152018  1
  Si  Si619  1  0.499760  0.945703  0.145720  1
  Si  Si620  1  0.714722  0.572532  0.177995  1
  Si  Si621  1  0.285260  0.572537  0.177985  1
  Si  Si622  1  0.214638  0.572471  0.141285  1
  Si  Si623  1  0.785392  0.572455  0.141297  1
  Si  Si624  1  0.814529  0.936913  0.195014  1
  Si  Si625  1  0.185673  0.937208  0.194952  1
  Si  Si626  1  0.314443  0.936845  0.124161  1
  Si  Si627  1  0.685646  0.937211  0.124349  1
  Si  Si628  1  0.712765  0.817663  0.177975  1
  Si  Si629  1  0.287195  0.817730  0.177968  1
  Si  Si630  1  0.212862  0.817712  0.141276  1
  Si  Si631  1  0.787205  0.817691  0.141294  1
  Si  Si632  1  0.808976  0.695238  0.194233  1
  Si  Si633  1  0.191016  0.695260  0.194216  1
  Si  Si634  1  0.308848  0.695181  0.125024  1
  Si  Si635  1  0.691185  0.695170  0.125042  1
  Si  Si636  1  -0.000000  0.692841  0.173965  1
  Si  Si637  1  0.499981  0.692284  0.145251  1
  Si  Si638  1  -0.000000  0.569280  0.151158  1
  Si  Si639  1  0.499997  0.569350  0.168186  1
  Si  Si640  1  -0.000000  0.946183  0.173518  1
  Si  Si641  1  0.499748  0.053598  0.173537  1
  Si  Si642  1  0.499975  0.180548  0.151977  1
  Si  Si643  1  -0.000000  0.181083  0.167226  1
  Si  Si644  1  0.285358  0.427550  0.141295  1
  Si  Si645  1  0.714621  0.427548  0.141285  1
  Si  Si646  1  0.785272  0.427468  0.177984  1
  Si  Si647  1  0.214749  0.427461  0.177996  1
  Si  Si648  1  0.185722  0.062783  0.124254  1
  Si  Si649  1  0.814489  0.063066  0.124190  1
  Si  Si650  1  0.685613  0.062707  0.194915  1
  Si  Si651  1  0.314451  0.063090  0.195101  1
  Si  Si652  1  0.287127  0.182181  0.141280  1
  Si  Si653  1  0.712808  0.182228  0.141270  1
  Si  Si654  1  0.787217  0.182198  0.177958  1
  Si  Si655  1  0.212812  0.182197  0.177979  1
  Si  Si656  1  0.191152  0.304787  0.125063  1
  Si  Si657  1  0.808812  0.304795  0.125045  1
  Si  Si658  1  0.691029  0.304693  0.194186  1
  Si  Si659  1  0.308990  0.304692  0.194206  1
  Si  Si660  1  -0.000000  0.307470  0.145272  1
  Si  Si661  1  0.499973  0.306900  0.173936  1
  Si  Si662  1  -0.000000  0.430483  0.168191  1
  Si  Si663  1  0.499995  0.430561  0.151152  1
  Si  Si664  1  -0.000000  0.054067  0.145695  1
  Si  Si665  1  0.388327  0.884332  0.090061  1
  Si  Si666  1  0.611618  0.884354  0.090264  1
  Si  Si667  1  0.387552  0.730849  0.090118  1
  Si  Si668  1  0.612406  0.730871  0.090153  1
  Si  Si669  1  0.112367  0.268961  0.090185  1
  Si  Si670  1  0.887535  0.269023  0.090155  1
  Si  Si671  1  0.111547  0.115470  0.090171  1
  Si  Si672  1  0.888254  0.115539  0.090082  1
  Si  Si673  1  0.499921  0.819266  0.568883  1
  Si  Si674  1  0.112376  0.730945  0.507027  1
  Si  Si675  1  0.887544  0.730877  0.507056  1
  Si  Si676  1  0.111559  0.884430  0.506953  1
  Si  Si677  1  0.888260  0.884359  0.507040  1
  Si  Si678  1  -0.000000  0.946444  0.562557  1
  Si  Si679  1  0.714644  0.572287  0.558156  1
  Si  Si680  1  0.285246  0.572358  0.558142  1
  Si  Si681  1  0.814132  0.937017  0.541121  1
  Si  Si682  1  0.185408  0.936847  0.541069  1
  Si  Si683  1  0.712785  0.817657  0.558176  1
  Si  Si684  1  0.287084  0.817679  0.558156  1
  Si  Si685  1  0.808848  0.695111  0.541951  1
  Si  Si686  1  0.190997  0.695161  0.541930  1
  Si  Si687  1  -0.000000  0.693189  0.562195  1
  Si  Si688  1  0.499928  0.569323  0.567986  1
  Si  Si689  1  0.387556  0.268940  0.507023  1
  Si  Si690  1  0.785263  0.427291  0.558134  1
  Si  Si691  1  0.214649  0.427355  0.558147  1
  Si  Si692  1  0.685555  0.063032  0.541032  1
  Si  Si693  1  0.314237  0.062693  0.541217  1
  Si  Si694  1  0.787162  0.182154  0.558151  1
  Si  Si695  1  0.212673  0.182189  0.558175  1
  Si  Si696  1  0.691033  0.304594  0.541887  1
  Si  Si697  1  0.308829  0.304633  0.541909  1
  Si  Si698  1  0.499970  0.307461  0.562125  1
  Si  Si699  1  -0.000000  0.430729  0.567946  1
  Si  Si700  1  0.500174  0.054156  0.562582  1
  Si  Si701  1  -0.000000  0.181435  0.568950  1
  Si  Si702  1  0.611617  0.115435  0.506925  1
  Si  Si703  1  0.388319  0.115456  0.507127  1
  Si  Si704  1  0.612374  0.268922  0.506985  1
  Si  Si705  1  0.499984  0.818645  0.445110  1
  Si  Si706  1  -0.000000  0.819183  0.429930  1
  Si  Si707  1  0.499760  0.945703  0.423632  1
  Si  Si708  1  0.714722  0.572532  0.455907  1
  Si  Si709  1  0.285260  0.572537  0.455897  1
  Si  Si710  1  0.214638  0.572471  0.419197  1
  Si  Si711  1  0.785392  0.572455  0.419209  1
  Si  Si712  1  0.814529  0.936913  0.472926  1
  Si  Si713  1  0.185673  0.937208  0.472864  1
  Si  Si714  1  0.314443  0.936845  0.402073  1
  Si  Si715  1  0.685646  0.937211  0.402261  1
  Si  Si716  1  0.712765  0.817663  0.455887  1
  Si  Si717  1  0.287195  0.817730  0.455880  1
  Si  Si718  1  0.212862  0.817712  0.419188  1
  Si  Si719  1  0.787205  0.817691  0.419206  1
  Si  Si720  1  0.808976  0.695238  0.472145  1
  Si  Si721  1  0.191016  0.695260  0.472128  1
  Si  Si722  1  0.308848  0.695181  0.402936  1
  Si  Si723  1  0.691185  0.695170  0.402954  1
  Si  Si724  1  -0.000000  0.692841  0.451877  1
  Si  Si725  1  0.499981  0.692284  0.423163  1
  Si  Si726  1  -0.000000  0.569280  0.429070  1
  Si  Si727  1  0.499997  0.569350  0.446098  1
  Si  Si728  1  -0.000000  0.946183  0.451430  1
  Si  Si729  1  0.499748  0.053598  0.451449  1
  Si  Si730  1  0.499975  0.180548  0.429890  1
  Si  Si731  1  -0.000000  0.181083  0.445138  1
  Si  Si732  1  0.285358  0.427550  0.419207  1
  Si  Si733  1  0.714621  0.427548  0.419197  1
  Si  Si734  1  0.785272  0.427468  0.455897  1
  Si  Si735  1  0.214749  0.427461  0.455908  1
  Si  Si736  1  0.185722  0.062783  0.402166  1
  Si  Si737  1  0.814489  0.063066  0.402103  1
  Si  Si738  1  0.685613  0.062707  0.472827  1
  Si  Si739  1  0.314451  0.063090  0.473013  1
  Si  Si740  1  0.287127  0.182181  0.419192  1
  Si  Si741  1  0.712808  0.182228  0.419182  1
  Si  Si742  1  0.787217  0.182198  0.455870  1
  Si  Si743  1  0.212812  0.182197  0.455891  1
  Si  Si744  1  0.191152  0.304787  0.402975  1
  Si  Si745  1  0.808812  0.304795  0.402957  1
  Si  Si746  1  0.691029  0.304693  0.472098  1
  Si  Si747  1  0.308990  0.304692  0.472118  1
  Si  Si748  1  -0.000000  0.307470  0.423184  1
  Si  Si749  1  0.499973  0.306900  0.451848  1
  Si  Si750  1  -0.000000  0.430483  0.446103  1
  Si  Si751  1  0.499995  0.430561  0.429064  1
  Si  Si752  1  -0.000000  0.054067  0.423607  1
  Si  Si753  1  0.214632  0.572274  0.316925  1
  Si  Si754  1  0.785293  0.572327  0.316937  1
  Si  Si755  1  0.314382  0.937180  0.333882  1
  Si  Si756  1  0.685413  0.936833  0.334066  1
  Si  Si757  1  0.212768  0.817672  0.316937  1
  Si  Si758  1  0.787030  0.817673  0.316967  1
  Si  Si759  1  0.308820  0.695072  0.333144  1
  Si  Si760  1  0.691001  0.695080  0.333163  1
  Si  Si761  1  0.499942  0.692842  0.312904  1
  Si  Si762  1  -0.000000  0.569502  0.307074  1
  Si  Si763  1  0.500176  0.946284  0.312493  1
  Si  Si764  1  0.000000  0.819548  0.306257  1
  Si  Si765  1  0.388327  0.884332  0.367973  1
  Si  Si766  1  0.611618  0.884354  0.368176  1
  Si  Si767  1  0.387552  0.730849  0.368030  1
  Si  Si768  1  0.612406  0.730871  0.368065  1
  Si  Si769  1  0.112367  0.268961  0.368097  1
  Si  Si770  1  0.887535  0.269023  0.368067  1
  Si  Si771  1  0.285287  0.427287  0.316941  1
  Si  Si772  1  0.714603  0.427353  0.316927  1
  Si  Si773  1  0.185327  0.062896  0.333965  1
  Si  Si774  1  0.814217  0.062719  0.333912  1
  Si  Si775  1  0.287145  0.182161  0.316944  1
  Si  Si776  1  0.712704  0.182167  0.316925  1
  Si  Si777  1  0.191021  0.304635  0.333198  1
  Si  Si778  1  0.808814  0.304673  0.333176  1
  Si  Si779  1  -0.000000  0.307810  0.312961  1
  Si  Si780  1  0.499927  0.430522  0.307104  1
  Si  Si781  1  0.000000  0.054333  0.312464  1
  Si  Si782  1  0.499911  0.181156  0.306179  1
  Si  Si783  1  0.111547  0.115470  0.368083  1
  Si  Si784  1  0.888254  0.115539  0.367994  1
  Si  Si785  1  0.112376  0.730945  0.784939  1
  Si  Si786  1  0.887544  0.730877  0.784968  1
  Si  Si787  1  0.111559  0.884430  0.784865  1
  Si  Si788  1  0.888260  0.884359  0.784952  1
  Si  Si789  1  0.387556  0.268940  0.784935  1
  Si  Si790  1  0.611617  0.115435  0.784837  1
  Si  Si791  1  0.388319  0.115456  0.785039  1
  Si  Si792  1  0.612374  0.268922  0.784897  1
  Si  Si793  1  0.499984  0.818645  0.723022  1
  Si  Si794  1  -0.000000  0.819183  0.707842  1
  Si  Si795  1  0.499760  0.945703  0.701544  1
  Si  Si796  1  0.714722  0.572532  0.733819  1
  Si  Si797  1  0.285260  0.572537  0.733809  1
  Si  Si798  1  0.214638  0.572471  0.697109  1
  Si  Si799  1  0.785392  0.572455  0.697121  1
  Si  Si800  1  0.814529  0.936913  0.750838  1
  Si  Si801  1  0.185673  0.937208  0.750776  1
  Si  Si802  1  0.314443  0.936845  0.679985  1
  Si  Si803  1  0.685646  0.937211  0.680173  1
  Si  Si804  1  0.712765  0.817663  0.733799  1
  Si  Si805  1  0.287195  0.817730  0.733792  1
  Si  Si806  1  0.212862  0.817712  0.697100  1
  Si  Si807  1  0.787205  0.817691  0.697118  1
  Si  Si808  1  0.808976  0.695238  0.750057  1
  Si  Si809  1  0.191016  0.695260  0.750040  1
  Si  Si810  1  0.308848  0.695181  0.680848  1
  Si  Si811  1  0.691185  0.695170  0.680866  1
  Si  Si812  1  0.000000  0.692841  0.729789  1
  Si  Si813  1  0.499981  0.692284  0.701075  1
  Si  Si814  1  -0.000000  0.569280  0.706982  1
  Si  Si815  1  0.499997  0.569350  0.724010  1
  Si  Si816  1  -0.000000  0.946183  0.729342  1
  Si  Si817  1  0.499748  0.053598  0.729361  1
  Si  Si818  1  0.499975  0.180548  0.707802  1
  Si  Si819  1  -0.000000  0.181083  0.723050  1
  Si  Si820  1  0.285358  0.427550  0.697119  1
  Si  Si821  1  0.714621  0.427548  0.697109  1
  Si  Si822  1  0.785272  0.427468  0.733809  1
  Si  Si823  1  0.214749  0.427461  0.733820  1
  Si  Si824  1  0.185722  0.062783  0.680078  1
  Si  Si825  1  0.814489  0.063066  0.680015  1
  Si  Si826  1  0.685613  0.062707  0.750739  1
  Si  Si827  1  0.314451  0.063090  0.750925  1
  Si  Si828  1  0.287127  0.182181  0.697104  1
  Si  Si829  1  0.712808  0.182228  0.697094  1
  Si  Si830  1  0.787217  0.182198  0.733782  1
  Si  Si831  1  0.212812  0.182197  0.733803  1
  Si  Si832  1  0.191152  0.304787  0.680887  1
  Si  Si833  1  0.808812  0.304795  0.680869  1
  Si  Si834  1  0.691029  0.304693  0.750010  1
  Si  Si835  1  0.308990  0.304692  0.750030  1
  Si  Si836  1  -0.000000  0.307470  0.701096  1
  Si  Si837  1  0.499973  0.306900  0.729761  1
  Si  Si838  1  -0.000000  0.430483  0.724015  1
  Si  Si839  1  0.499995  0.430561  0.706976  1
  Si  Si840  1  -0.000000  0.054067  0.701519  1
  Si  Si841  1  0.214632  0.572274  0.594837  1
  Si  Si842  1  0.785293  0.572327  0.594849  1
  Si  Si843  1  0.314382  0.937180  0.611794  1
  Si  Si844  1  0.685413  0.936833  0.611978  1
  Si  Si845  1  0.212768  0.817672  0.594849  1
  Si  Si846  1  0.787030  0.817673  0.594879  1
  Si  Si847  1  0.308820  0.695072  0.611056  1
  Si  Si848  1  0.691001  0.695080  0.611075  1
  Si  Si849  1  0.499942  0.692842  0.590816  1
  Si  Si850  1  -0.000000  0.569502  0.584986  1
  Si  Si851  1  0.500176  0.946284  0.590405  1
  Si  Si852  1  -0.000000  0.819548  0.584169  1
  Si  Si853  1  0.388327  0.884332  0.645885  1
  Si  Si854  1  0.611618  0.884354  0.646088  1
  Si  Si855  1  0.387552  0.730849  0.645943  1
  Si  Si856  1  0.612406  0.730871  0.645977  1
  Si  Si857  1  0.112367  0.268961  0.646009  1
  Si  Si858  1  0.887535  0.269023  0.645979  1
  Si  Si859  1  0.285287  0.427287  0.594853  1
  Si  Si860  1  0.714603  0.427353  0.594839  1
  Si  Si861  1  0.185327  0.062896  0.611877  1
  Si  Si862  1  0.814217  0.062719  0.611824  1
  Si  Si863  1  0.287145  0.182161  0.594856  1
  Si  Si864  1  0.712704  0.182167  0.594837  1
  Si  Si865  1  0.191021  0.304635  0.611110  1
  Si  Si866  1  0.808814  0.304673  0.611088  1
  Si  Si867  1  -0.000000  0.307810  0.590873  1
  Si  Si868  1  0.499927  0.430522  0.585016  1
  Si  Si869  1  -0.000000  0.054333  0.590376  1
  Si  Si870  1  0.499911  0.181156  0.584091  1
  Si  Si871  1  0.111547  0.115470  0.645995  1
  Si  Si872  1  0.888254  0.115539  0.645906  1
  H  H873  1  0.344683  0.913357  0.062453  1
  H  H874  1  0.656495  0.913137  0.062721  1
  H  H875  1  0.336558  0.703212  0.062842  1
  H  H876  1  0.663541  0.703583  0.062853  1
  H  H877  1  0.155857  0.086764  0.062577  1
  H  H878  1  0.844216  0.086610  0.062493  1
  H  H879  1  0.163402  0.296419  0.062897  1
  H  H880  1  0.836515  0.296573  0.062875  1
  H  H881  1  0.843780  0.913303  0.812506  1
  H  H882  1  0.156296  0.913154  0.812424  1
  H  H883  1  0.836460  0.703367  0.812250  1
  H  H884  1  0.163481  0.703549  0.812228  1
  H  H885  1  0.656733  0.086754  0.812372  1
  H  H886  1  0.344424  0.086550  0.812641  1
  H  H887  1  0.663519  0.296268  0.812186  1
  H  H888  1  0.336488  0.296539  0.812206  1
