# generated using pymatgen
data_Si123(H4O125)2
_symmetry_space_group_name_H-M   'P 1'
_cell_length_a   13.77465444
_cell_length_b   35.19864774
_cell_length_c   79.14906333
_cell_angle_alpha   90.00000000
_cell_angle_beta   90.00000000
_cell_angle_gamma   90.00000000
_symmetry_Int_Tables_number   1
_chemical_formula_structural   Si123(H4O125)2
_chemical_formula_sum   'Si492 H32 O1000'
_cell_volume   38375.3607761
_cell_formula_units_Z   4
loop_
 _symmetry_equiv_pos_site_id
 _symmetry_equiv_pos_as_xyz
  1  'x, y, z'
loop_
 _atom_site_type_symbol
 _atom_site_label
 _atom_site_symmetry_multiplicity
 _atom_site_fract_x
 _atom_site_fract_y
 _atom_site_fract_z
 _atom_site_occupancy
  O  O1  1  0.337601  0.924575  0.074577  1
  O  O2  1  0.663136  0.924365  0.074630  1
  O  O3  1  0.343161  0.802490  0.074567  1
  O  O4  1  0.655776  0.802126  0.074543  1
  O  O5  1  0.499731  0.813624  0.090794  1
  O  O6  1  0.399757  -0.000000  0.178160  1
  O  O7  1  0.600435  -0.000000  0.178158  1
  O  O8  1  0.100435  0.000000  0.141835  1
  O  O9  1  0.497566  0.250324  0.159838  1
  O  O10  1  0.996790  0.250151  0.160058  1
  O  O11  1  0.251073  0.108936  0.188628  1
  O  O12  1  0.249325  0.108955  0.131389  1
  O  O13  1  0.749296  0.108918  0.188629  1
  O  O14  1  0.751218  0.108879  0.131389  1
  O  O15  1  0.162952  0.075254  0.212960  1
  O  O16  1  0.337336  0.075175  0.107053  1
  O  O17  1  0.837338  0.075443  0.213053  1
  O  O18  1  0.662895  0.075557  0.106969  1
  O  O19  1  0.246201  0.036237  0.187887  1
  O  O20  1  0.254154  0.036247  0.132158  1
  O  O21  1  0.753472  0.036084  0.188276  1
  O  O22  1  0.746693  0.036064  0.131712  1
  O  O23  1  0.093211  0.074844  0.184355  1
  O  O24  1  0.407149  0.074875  0.135646  1
  O  O25  1  0.906745  0.074498  0.184419  1
  O  O26  1  0.593603  0.074576  0.135619  1
  O  O27  1  0.257024  0.181971  0.134154  1
  O  O28  1  0.257383  0.317953  0.185886  1
  O  O29  1  0.243203  0.181929  0.185911  1
  O  O30  1  0.242885  0.318036  0.134083  1
  O  O31  1  0.742824  0.317991  0.185982  1
  O  O32  1  0.742882  0.181858  0.134045  1
  O  O33  1  0.757345  0.317942  0.134088  1
  O  O34  1  0.757434  0.181938  0.185903  1
  O  O35  1  0.250146  0.140050  0.160020  1
  O  O36  1  0.750099  0.140102  0.159998  1
  O  O37  1  0.099497  0.147383  0.142217  1
  O  O38  1  0.400814  0.147443  0.177809  1
  O  O39  1  0.900601  0.147572  0.142196  1
  O  O40  1  0.599724  0.147516  0.177839  1
  O  O41  1  0.250671  0.249921  0.197163  1
  O  O42  1  0.250738  0.250029  0.122889  1
  O  O43  1  0.750673  0.249880  0.122844  1
  O  O44  1  0.750736  0.249982  0.197185  1
  O  O45  1  0.155739  0.197691  0.212855  1
  O  O46  1  0.155677  0.302127  0.107123  1
  O  O47  1  0.342762  0.197341  0.106987  1
  O  O48  1  0.343520  0.302516  0.213001  1
  O  O49  1  0.842966  0.302469  0.106905  1
  O  O50  1  0.843168  0.197348  0.213077  1
  O  O51  1  0.655538  0.302070  0.212945  1
  O  O52  1  0.656010  0.197730  0.107035  1
  O  O53  1  0.093930  0.222554  0.184760  1
  O  O54  1  0.093821  0.277353  0.135244  1
  O  O55  1  0.407876  0.221764  0.134801  1
  O  O56  1  0.407843  0.277897  0.185150  1
  O  O57  1  0.907936  0.278058  0.134749  1
  O  O58  1  0.908034  0.221855  0.185265  1
  O  O59  1  0.593822  0.277282  0.184816  1
  O  O60  1  0.593700  0.222414  0.135127  1
  O  O61  1  0.127337  0.135945  0.229149  1
  O  O62  1  0.500453  0.321280  0.165438  1
  O  O63  1  0.500445  0.178988  0.154747  1
  O  O64  1  0.899706  0.000000  0.141831  1
  O  O65  1  0.750065  0.001222  0.159991  1
  O  O66  1  0.000000  0.107392  0.161489  1
  O  O67  1  0.500608  0.107402  0.158541  1
  O  O68  1  -0.000000  0.035443  0.163139  1
  O  O69  1  0.499827  0.035413  0.156847  1
  O  O70  1  -0.000000  0.178941  0.165306  1
  O  O71  1  0.000000  0.321233  0.154622  1
  O  O72  1  -0.000000  0.084558  0.229257  1
  O  O73  1  0.001645  0.250706  0.298115  1
  O  O74  1  0.497942  0.249504  0.298177  1
  O  O75  1  -0.000000  0.321454  0.303948  1
  O  O76  1  0.751192  0.108933  0.326999  1
  O  O77  1  0.748995  0.108965  0.269849  1
  O  O78  1  0.249275  0.109023  0.327035  1
  O  O79  1  0.251171  0.108936  0.269832  1
  O  O80  1  0.662906  0.075358  0.351324  1
  O  O81  1  0.837467  0.075199  0.245542  1
  O  O82  1  0.337131  0.075142  0.351359  1
  O  O83  1  0.163157  0.075373  0.245467  1
  O  O84  1  0.746221  0.036207  0.326281  1
  O  O85  1  0.754053  0.036232  0.270603  1
  O  O86  1  0.253688  0.036290  0.326264  1
  O  O87  1  0.246027  0.036251  0.270551  1
  O  O88  1  0.593377  0.074839  0.322717  1
  O  O89  1  0.906799  0.074945  0.274159  1
  O  O90  1  0.406860  0.074774  0.322755  1
  O  O91  1  0.093188  0.074942  0.274074  1
  O  O92  1  0.757097  0.181997  0.272500  1
  O  O93  1  0.757355  0.317960  0.324285  1
  O  O94  1  0.742740  0.181938  0.324421  1
  O  O95  1  0.742965  0.318104  0.272449  1
  O  O96  1  0.242675  0.318070  0.324393  1
  O  O97  1  0.242820  0.181905  0.272435  1
  O  O98  1  0.257178  0.318003  0.272543  1
  O  O99  1  0.257326  0.182064  0.324299  1
  O  O100  1  0.750139  0.140293  0.298440  1
  O  O101  1  0.249887  0.140216  0.298414  1
  O  O102  1  0.599509  0.147618  0.280638  1
  O  O103  1  0.900610  0.147677  0.316276  1
  O  O104  1  0.400549  0.147651  0.280629  1
  O  O105  1  0.099579  0.147617  0.316293  1
  O  O106  1  0.750173  0.249984  0.335609  1
  O  O107  1  0.750211  0.250067  0.261281  1
  O  O108  1  0.250219  0.249965  0.261298  1
  O  O109  1  0.250271  0.250067  0.335611  1
  O  O110  1  0.655275  0.197923  0.351379  1
  O  O111  1  0.656135  0.302273  0.245415  1
  O  O112  1  0.844012  0.197706  0.245493  1
  O  O113  1  0.844323  0.302419  0.351294  1
  O  O114  1  0.342982  0.302521  0.245398  1
  O  O115  1  0.343509  0.197519  0.351398  1
  O  O116  1  0.156306  0.302314  0.351485  1
  O  O117  1  0.156948  0.197697  0.245302  1
  O  O118  1  0.593526  0.222600  0.323234  1
  O  O119  1  0.593402  0.277738  0.273499  1
  O  O120  1  0.907010  0.222213  0.273490  1
  O  O121  1  0.906958  0.277430  0.323289  1
  O  O122  1  0.407625  0.278101  0.273233  1
  O  O123  1  0.407507  0.222245  0.323525  1
  O  O124  1  0.093008  0.277656  0.323500  1
  O  O125  1  0.092783  0.221966  0.273246  1
  O  O126  1  0.000000  0.186193  0.229215  1
  O  O127  1  0.499820  0.313817  0.229257  1
  O  O128  1  0.372766  0.135747  0.367580  1
  O  O129  1  0.873203  0.135867  0.229377  1
  O  O130  1  0.899709  0.000000  0.316556  1
  O  O131  1  0.399701  0.000000  0.280235  1
  O  O132  1  0.499932  0.107159  0.299751  1
  O  O133  1  -0.000000  0.107519  0.297043  1
  O  O134  1  0.500066  0.035241  0.301589  1
  O  O135  1  -0.000000  0.035463  0.295278  1
  O  O136  1  0.500086  0.178641  0.303878  1
  O  O137  1  0.500146  0.320932  0.293205  1
  O  O138  1  0.000000  0.179179  0.293241  1
  O  O139  1  0.500057  0.084570  0.367576  1
  O  O140  1  0.626995  0.136072  0.367531  1
  O  O141  1  0.600456  0.000000  0.280231  1
  O  O142  1  0.500068  0.464725  0.163216  1
  O  O143  1  0.000000  0.535415  0.156912  1
  O  O144  1  0.000000  0.464742  0.156794  1
  O  O145  1  0.500178  0.535353  0.163121  1
  O  O146  1  0.751189  0.608797  0.188581  1
  O  O147  1  0.251302  0.391017  0.131408  1
  O  O148  1  0.749114  0.608816  0.131455  1
  O  O149  1  0.249142  0.390975  0.188639  1
  O  O150  1  0.749215  0.390961  0.131410  1
  O  O151  1  0.249234  0.608834  0.188590  1
  O  O152  1  0.751167  0.390981  0.188610  1
  O  O153  1  0.251148  0.608781  0.131433  1
  O  O154  1  0.662943  0.575627  0.213000  1
  O  O155  1  0.162887  0.424679  0.107086  1
  O  O156  1  0.837358  0.575460  0.107045  1
  O  O157  1  0.337360  0.424786  0.212959  1
  O  O158  1  0.837230  0.424698  0.107062  1
  O  O159  1  0.337359  0.575400  0.212996  1
  O  O160  1  0.663058  0.424623  0.212960  1
  O  O161  1  0.162893  0.575599  0.107013  1
  O  O162  1  0.746724  0.535999  0.188273  1
  O  O163  1  0.246195  0.463720  0.132143  1
  O  O164  1  0.753464  0.535999  0.131792  1
  O  O165  1  0.253997  0.463701  0.187873  1
  O  O166  1  0.754051  0.463681  0.132154  1
  O  O167  1  0.253358  0.536019  0.188241  1
  O  O168  1  0.746293  0.463693  0.187898  1
  O  O169  1  0.246634  0.536005  0.131757  1
  O  O170  1  0.593441  0.574502  0.184377  1
  O  O171  1  0.093420  0.425033  0.135715  1
  O  O172  1  0.906770  0.574483  0.135664  1
  O  O173  1  0.406895  0.425078  0.184340  1
  O  O174  1  0.906978  0.425070  0.135666  1
  O  O175  1  0.406808  0.574432  0.184378  1
  O  O176  1  0.593366  0.425101  0.184348  1
  O  O177  1  0.093365  0.574535  0.135642  1
  O  O178  1  0.750038  0.640150  0.160031  1
  O  O179  1  0.250090  0.359833  0.160010  1
  O  O180  1  0.750136  0.359712  0.160020  1
  O  O181  1  0.249966  0.640100  0.159995  1
  O  O182  1  0.599471  0.647402  0.142231  1
  O  O183  1  0.099577  0.352354  0.177830  1
  O  O184  1  0.900630  0.647488  0.177816  1
  O  O185  1  0.400706  0.352309  0.142221  1
  O  O186  1  0.900614  0.352280  0.177833  1
  O  O187  1  0.400608  0.647426  0.142220  1
  O  O188  1  0.599658  0.352348  0.142198  1
  O  O189  1  0.099498  0.647372  0.177818  1
  O  O190  1  0.500188  0.392791  0.161338  1
  O  O191  1  0.000000  0.607392  0.158504  1
  O  O192  1  0.600460  0.499871  0.141845  1
  O  O193  1  0.100417  0.499871  0.178169  1
  O  O194  1  0.899749  0.499921  0.178172  1
  O  O195  1  0.399739  0.499921  0.141843  1
  O  O196  1  0.750012  0.500985  0.160029  1
  O  O197  1  0.250086  0.501018  0.160006  1
  O  O198  1  0.500000  0.607289  0.161512  1
  O  O199  1  -0.000000  0.392772  0.158704  1
  O  O200  1  0.627215  0.363953  0.229152  1
  O  O201  1  0.000000  0.464787  0.301618  1
  O  O202  1  0.251151  0.608857  0.327013  1
  O  O203  1  0.751431  0.391071  0.269819  1
  O  O204  1  0.249005  0.608830  0.269840  1
  O  O205  1  0.749275  0.390989  0.327045  1
  O  O206  1  0.249098  0.391005  0.269816  1
  O  O207  1  0.749400  0.608875  0.326970  1
  O  O208  1  0.251064  0.391039  0.327052  1
  O  O209  1  0.751189  0.608854  0.269878  1
  O  O210  1  0.162785  0.575422  0.351374  1
  O  O211  1  0.663077  0.424552  0.245453  1
  O  O212  1  0.337457  0.575385  0.245475  1
  O  O213  1  0.837301  0.424814  0.351377  1
  O  O214  1  0.337364  0.424758  0.245470  1
  O  O215  1  0.837246  0.575551  0.351400  1
  O  O216  1  0.163007  0.424585  0.351417  1
  O  O217  1  0.662968  0.575636  0.245452  1
  O  O218  1  0.247085  0.536047  0.326644  1
  O  O219  1  0.745871  0.463763  0.270523  1
  O  O220  1  0.253767  0.536019  0.270276  1
  O  O221  1  0.753812  0.463729  0.326298  1
  O  O222  1  0.254201  0.463715  0.270558  1
  O  O223  1  0.753305  0.536059  0.326652  1
  O  O224  1  0.246412  0.463742  0.326397  1
  O  O225  1  0.746648  0.536042  0.270190  1
  O  O226  1  0.093592  0.574440  0.322732  1
  O  O227  1  0.593334  0.424921  0.274069  1
  O  O228  1  0.406843  0.574700  0.274102  1
  O  O229  1  0.906874  0.425214  0.322770  1
  O  O230  1  0.406954  0.425011  0.274084  1
  O  O231  1  0.906918  0.574365  0.322799  1
  O  O232  1  0.093358  0.425259  0.322795  1
  O  O233  1  0.593440  0.574570  0.274069  1
  O  O234  1  0.250221  0.640039  0.298428  1
  O  O235  1  0.749905  0.359837  0.298413  1
  O  O236  1  0.250224  0.359840  0.298450  1
  O  O237  1  0.750048  0.640305  0.298418  1
  O  O238  1  0.099489  0.647435  0.280664  1
  O  O239  1  0.599578  0.352401  0.316282  1
  O  O240  1  0.400795  0.647465  0.316226  1
  O  O241  1  0.900691  0.352364  0.280669  1
  O  O242  1  0.400604  0.352360  0.316292  1
  O  O243  1  0.900641  0.647516  0.280648  1
  O  O244  1  0.099590  0.352415  0.280662  1
  O  O245  1  0.599722  0.647504  0.316261  1
  O  O246  1  0.626993  0.636272  0.229247  1
  O  O247  1  0.499980  0.535282  0.295252  1
  O  O248  1  0.500284  0.464565  0.295204  1
  O  O249  1  0.372911  0.635976  0.229225  1
  O  O250  1  0.872889  0.364162  0.367563  1
  O  O251  1  0.500197  0.584779  0.229225  1
  O  O252  1  0.000000  0.535365  0.301477  1
  O  O253  1  0.500258  0.415423  0.229210  1
  O  O254  1  -0.000000  0.392901  0.299785  1
  O  O255  1  0.100462  0.499865  0.280210  1
  O  O256  1  0.600408  0.499912  0.316543  1
  O  O257  1  0.399802  0.499819  0.316530  1
  O  O258  1  0.899673  0.499833  0.280214  1
  O  O259  1  0.249475  0.500807  0.298481  1
  O  O260  1  0.750241  0.500998  0.298420  1
  O  O261  1  0.000000  0.607265  0.299916  1
  O  O262  1  0.500042  0.392550  0.297058  1
  O  O263  1  0.500442  0.607288  0.296997  1
  O  O264  1  0.127218  0.636142  0.367483  1
  O  O265  1  0.372973  0.364207  0.229209  1
  O  O266  1  0.003619  0.750317  0.159843  1
  O  O267  1  0.497088  0.750029  0.160020  1
  O  O268  1  0.751140  0.891081  0.131452  1
  O  O269  1  0.749212  0.891038  0.188543  1
  O  O270  1  0.249045  0.891109  0.131426  1
  O  O271  1  0.251219  0.891135  0.188598  1
  O  O272  1  0.663045  0.924538  0.107104  1
  O  O273  1  0.837188  0.924725  0.212880  1
  O  O274  1  0.337458  0.924567  0.107043  1
  O  O275  1  0.162822  0.924391  0.212993  1
  O  O276  1  0.746083  0.963785  0.132152  1
  O  O277  1  0.753928  0.963777  0.187818  1
  O  O278  1  0.253419  0.963951  0.131784  1
  O  O279  1  0.246765  0.963957  0.188275  1
  O  O280  1  0.593155  0.925127  0.135691  1
  O  O281  1  0.907016  0.925216  0.184303  1
  O  O282  1  0.406593  0.925450  0.135686  1
  O  O283  1  0.093607  0.925463  0.184341  1
  O  O284  1  0.757038  0.681853  0.134106  1
  O  O285  1  0.757065  0.817984  0.185908  1
  O  O286  1  0.742818  0.681792  0.186001  1
  O  O287  1  0.742952  0.818080  0.133995  1
  O  O288  1  0.242575  0.818135  0.185988  1
  O  O289  1  0.242886  0.681766  0.134021  1
  O  O290  1  0.257345  0.818073  0.134111  1
  O  O291  1  0.257084  0.681871  0.185898  1
  O  O292  1  0.749963  0.859680  0.159984  1
  O  O293  1  0.250035  0.859827  0.160026  1
  O  O294  1  0.599449  0.852464  0.177803  1
  O  O295  1  0.900667  0.852427  0.142218  1
  O  O296  1  0.400517  0.852356  0.177829  1
  O  O297  1  0.099592  0.852419  0.142205  1
  O  O298  1  0.750014  0.749906  0.197112  1
  O  O299  1  0.750029  0.749952  0.122913  1
  O  O300  1  0.249992  0.749944  0.122971  1
  O  O301  1  0.250031  0.750001  0.197069  1
  O  O302  1  0.655485  0.697889  0.212957  1
  O  O303  1  0.655591  0.801959  0.107039  1
  O  O304  1  0.844398  0.697752  0.107168  1
  O  O305  1  0.844839  0.802070  0.212803  1
  O  O306  1  0.342941  0.802278  0.106977  1
  O  O307  1  0.342892  0.697593  0.213015  1
  O  O308  1  0.156910  0.802182  0.213134  1
  O  O309  1  0.157550  0.697716  0.106837  1
  O  O310  1  0.593448  0.722402  0.184807  1
  O  O311  1  0.593530  0.777533  0.135209  1
  O  O312  1  0.906562  0.722382  0.135256  1
  O  O313  1  0.906455  0.777343  0.184679  1
  O  O314  1  0.407606  0.777996  0.134822  1
  O  O315  1  0.407490  0.721919  0.185176  1
  O  O316  1  0.092451  0.777984  0.185225  1
  O  O317  1  0.092433  0.721711  0.134717  1
  O  O318  1  0.500032  0.678837  0.165330  1
  O  O319  1  0.000000  0.964798  0.163165  1
  O  O320  1  0.000000  0.821331  0.165417  1
  O  O321  1  0.000000  0.678977  0.154758  1
  O  O322  1  0.500024  0.821187  0.154657  1
  O  O323  1  0.249961  0.998926  0.160026  1
  O  O324  1  0.499647  0.892740  0.158623  1
  O  O325  1  -0.000000  0.892851  0.161372  1
  O  O326  1  0.500406  0.964723  0.156848  1
  O  O327  1  0.500381  0.915228  0.090841  1
  O  O328  1  0.000000  0.915225  0.229159  1
  O  O329  1  0.627217  0.863778  0.090882  1
  O  O330  1  0.872879  0.863934  0.228986  1
  O  O331  1  0.373044  0.864006  0.090834  1
  O  O332  1  0.500497  0.821235  0.303786  1
  O  O333  1  0.500519  0.678876  0.293141  1
  O  O334  1  0.497475  0.750155  0.298340  1
  O  O335  1  0.251277  0.891177  0.269815  1
  O  O336  1  0.249072  0.891149  0.327029  1
  O  O337  1  0.749214  0.891143  0.269837  1
  O  O338  1  0.750931  0.891122  0.326989  1
  O  O339  1  0.162514  0.924522  0.245448  1
  O  O340  1  0.337601  0.924575  0.351398  1
  O  O341  1  0.837064  0.924388  0.245369  1
  O  O342  1  0.663136  0.924365  0.351452  1
  O  O343  1  0.246600  0.963976  0.270176  1
  O  O344  1  0.253397  0.963969  0.326665  1
  O  O345  1  0.753607  0.963926  0.270150  1
  O  O346  1  0.746824  0.963903  0.326694  1
  O  O347  1  0.093530  0.925367  0.274105  1
  O  O348  1  0.406669  0.925472  0.322755  1
  O  O349  1  0.906969  0.925440  0.273974  1
  O  O350  1  0.593289  0.925556  0.322845  1
  O  O351  1  0.257149  0.681887  0.272551  1
  O  O352  1  0.257144  0.818120  0.324276  1
  O  O353  1  0.243017  0.681882  0.324306  1
  O  O354  1  0.243111  0.818184  0.272519  1
  O  O355  1  0.742847  0.818136  0.324388  1
  O  O356  1  0.743041  0.681860  0.272408  1
  O  O357  1  0.757235  0.818134  0.272449  1
  O  O358  1  0.757444  0.681915  0.324391  1
  O  O359  1  0.250015  0.860018  0.298415  1
  O  O360  1  0.750132  0.859798  0.298416  1
  O  O361  1  0.099412  0.852613  0.316211  1
  O  O362  1  0.400775  0.852581  0.280663  1
  O  O363  1  0.900544  0.852512  0.316228  1
  O  O364  1  0.599624  0.852562  0.280622  1
  O  O365  1  0.250683  0.749975  0.335462  1
  O  O366  1  0.250723  0.750071  0.261411  1
  O  O367  1  0.750733  0.749979  0.261318  1
  O  O368  1  0.750622  0.750072  0.335543  1
  O  O369  1  0.155533  0.697923  0.351206  1
  O  O370  1  0.155905  0.802128  0.245583  1
  O  O371  1  0.342864  0.697579  0.245423  1
  O  O372  1  0.343161  0.802490  0.351389  1
  O  O373  1  0.842646  0.802457  0.245254  1
  O  O374  1  0.843246  0.697726  0.351536  1
  O  O375  1  0.655776  0.802126  0.351365  1
  O  O376  1  0.655834  0.698046  0.245452  1
  O  O377  1  0.093904  0.722679  0.323087  1
  O  O378  1  0.093852  0.777550  0.273688  1
  O  O379  1  0.407936  0.721769  0.273256  1
  O  O380  1  0.407779  0.778101  0.323543  1
  O  O381  1  0.907991  0.778326  0.273105  1
  O  O382  1  0.907884  0.721961  0.323652  1
  O  O383  1  0.593760  0.777442  0.323237  1
  O  O384  1  0.593862  0.722455  0.273601  1
  O  O385  1  -0.000000  0.821126  0.293127  1
  O  O386  1  -0.000000  0.678779  0.303805  1
  O  O387  1  0.500125  0.964645  0.301540  1
  O  O388  1  -0.000000  0.964729  0.295222  1
  O  O389  1  0.500388  0.892746  0.299914  1
  O  O390  1  -0.000000  0.892725  0.296949  1
  O  O391  1  0.996465  0.749836  0.298300  1
  O  O392  1  0.749891  0.998808  0.298432  1
  O  O393  1  0.250126  0.998947  0.298418  1
  O  O394  1  0.499589  0.686415  0.229240  1
  O  O395  1  -0.000000  0.813620  0.229262  1
  O  O396  1  0.127045  0.863845  0.229296  1
  O  O397  1  0.100328  0.000000  0.316556  1
  O  O398  1  0.499731  0.813624  0.367616  1
  O  O399  1  0.399757  0.000000  0.454982  1
  O  O400  1  0.600435  -0.000000  0.454980  1
  O  O401  1  0.100435  0.000000  0.418657  1
  O  O402  1  0.497566  0.250324  0.436659  1
  O  O403  1  0.996790  0.250151  0.436879  1
  O  O404  1  0.251073  0.108936  0.465450  1
  O  O405  1  0.249325  0.108955  0.408211  1
  O  O406  1  0.749296  0.108918  0.465451  1
  O  O407  1  0.751218  0.108879  0.408211  1
  O  O408  1  0.162952  0.075254  0.489782  1
  O  O409  1  0.337336  0.075175  0.383875  1
  O  O410  1  0.837338  0.075443  0.489875  1
  O  O411  1  0.662895  0.075557  0.383791  1
  O  O412  1  0.246201  0.036237  0.464709  1
  O  O413  1  0.254154  0.036247  0.408980  1
  O  O414  1  0.753472  0.036084  0.465098  1
  O  O415  1  0.746693  0.036064  0.408534  1
  O  O416  1  0.093211  0.074844  0.461177  1
  O  O417  1  0.407149  0.074875  0.412468  1
  O  O418  1  0.906745  0.074498  0.461241  1
  O  O419  1  0.593603  0.074576  0.412441  1
  O  O420  1  0.257024  0.181971  0.410976  1
  O  O421  1  0.257383  0.317953  0.462708  1
  O  O422  1  0.243203  0.181929  0.462733  1
  O  O423  1  0.242885  0.318036  0.410905  1
  O  O424  1  0.742824  0.317991  0.462804  1
  O  O425  1  0.742882  0.181858  0.410867  1
  O  O426  1  0.757345  0.317942  0.410910  1
  O  O427  1  0.757434  0.181938  0.462725  1
  O  O428  1  0.250146  0.140050  0.436841  1
  O  O429  1  0.750099  0.140102  0.436819  1
  O  O430  1  0.099497  0.147383  0.419039  1
  O  O431  1  0.400814  0.147443  0.454631  1
  O  O432  1  0.900601  0.147572  0.419018  1
  O  O433  1  0.599724  0.147516  0.454661  1
  O  O434  1  0.250671  0.249921  0.473984  1
  O  O435  1  0.250738  0.250029  0.399711  1
  O  O436  1  0.750673  0.249880  0.399666  1
  O  O437  1  0.750736  0.249982  0.474007  1
  O  O438  1  0.155739  0.197691  0.489677  1
  O  O439  1  0.155677  0.302127  0.383944  1
  O  O440  1  0.342762  0.197341  0.383809  1
  O  O441  1  0.343520  0.302516  0.489823  1
  O  O442  1  0.842966  0.302469  0.383727  1
  O  O443  1  0.843168  0.197348  0.489899  1
  O  O444  1  0.655538  0.302070  0.489767  1
  O  O445  1  0.656010  0.197730  0.383856  1
  O  O446  1  0.093930  0.222554  0.461581  1
  O  O447  1  0.093821  0.277353  0.412066  1
  O  O448  1  0.407876  0.221764  0.411623  1
  O  O449  1  0.407843  0.277897  0.461972  1
  O  O450  1  0.907936  0.278058  0.411570  1
  O  O451  1  0.908034  0.221855  0.462087  1
  O  O452  1  0.593822  0.277282  0.461638  1
  O  O453  1  0.593700  0.222414  0.411949  1
  O  O454  1  0.499620  0.186169  0.367696  1
  O  O455  1  0.127337  0.135945  0.505971  1
  O  O456  1  0.500453  0.321280  0.442260  1
  O  O457  1  0.500445  0.178988  0.431569  1
  O  O458  1  0.899706  0.000000  0.418653  1
  O  O459  1  0.750065  0.001222  0.436813  1
  O  O460  1  -0.000000  0.107392  0.438311  1
  O  O461  1  0.500608  0.107402  0.435363  1
  O  O462  1  0.000000  0.035443  0.439961  1
  O  O463  1  0.499827  0.035413  0.433669  1
  O  O464  1  -0.000000  0.178941  0.442128  1
  O  O465  1  0.000000  0.321233  0.431444  1
  O  O466  1  -0.000000  0.313846  0.367663  1
  O  O467  1  -0.000000  0.084558  0.506079  1
  O  O468  1  0.001645  0.250706  0.574937  1
  O  O469  1  0.497942  0.249504  0.574999  1
  O  O470  1  0.000000  0.321454  0.580769  1
  O  O471  1  0.751192  0.108933  0.603820  1
  O  O472  1  0.748995  0.108965  0.546671  1
  O  O473  1  0.249275  0.109023  0.603857  1
  O  O474  1  0.251171  0.108936  0.546654  1
  O  O475  1  0.662906  0.075358  0.628146  1
  O  O476  1  0.837467  0.075199  0.522364  1
  O  O477  1  0.337131  0.075142  0.628181  1
  O  O478  1  0.163157  0.075373  0.522288  1
  O  O479  1  0.746221  0.036207  0.603102  1
  O  O480  1  0.754053  0.036232  0.547425  1
  O  O481  1  0.253688  0.036290  0.603086  1
  O  O482  1  0.246027  0.036251  0.547373  1
  O  O483  1  0.593377  0.074839  0.599539  1
  O  O484  1  0.906799  0.074945  0.550981  1
  O  O485  1  0.406860  0.074774  0.599577  1
  O  O486  1  0.093188  0.074942  0.550895  1
  O  O487  1  0.757097  0.181997  0.549322  1
  O  O488  1  0.757355  0.317960  0.601107  1
  O  O489  1  0.742740  0.181938  0.601242  1
  O  O490  1  0.742965  0.318104  0.549270  1
  O  O491  1  0.242675  0.318070  0.601215  1
  O  O492  1  0.242820  0.181905  0.549257  1
  O  O493  1  0.257178  0.318003  0.549365  1
  O  O494  1  0.257326  0.182064  0.601121  1
  O  O495  1  0.750139  0.140293  0.575262  1
  O  O496  1  0.249887  0.140216  0.575236  1
  O  O497  1  0.599509  0.147618  0.557460  1
  O  O498  1  0.900610  0.147677  0.593098  1
  O  O499  1  0.400549  0.147651  0.557451  1
  O  O500  1  0.099579  0.147617  0.593115  1
  O  O501  1  0.750173  0.249984  0.612431  1
  O  O502  1  0.750211  0.250067  0.538103  1
  O  O503  1  0.250219  0.249965  0.538120  1
  O  O504  1  0.250271  0.250067  0.612432  1
  O  O505  1  0.655275  0.197923  0.628200  1
  O  O506  1  0.656135  0.302273  0.522237  1
  O  O507  1  0.844012  0.197706  0.522314  1
  O  O508  1  0.844323  0.302419  0.628116  1
  O  O509  1  0.342982  0.302521  0.522220  1
  O  O510  1  0.343509  0.197519  0.628219  1
  O  O511  1  0.156306  0.302314  0.628307  1
  O  O512  1  0.156948  0.197697  0.522124  1
  O  O513  1  0.593526  0.222600  0.600056  1
  O  O514  1  0.593402  0.277738  0.550321  1
  O  O515  1  0.907010  0.222213  0.550312  1
  O  O516  1  0.906958  0.277430  0.600111  1
  O  O517  1  0.407625  0.278101  0.550054  1
  O  O518  1  0.407507  0.222245  0.600347  1
  O  O519  1  0.093008  0.277656  0.600322  1
  O  O520  1  0.092783  0.221966  0.550068  1
  O  O521  1  0.000000  0.186193  0.506037  1
  O  O522  1  0.499820  0.313817  0.506078  1
  O  O523  1  0.372766  0.135747  0.644402  1
  O  O524  1  0.873203  0.135867  0.506199  1
  O  O525  1  0.899709  -0.000000  0.593378  1
  O  O526  1  0.399701  0.000000  0.557057  1
  O  O527  1  0.499932  0.107159  0.576573  1
  O  O528  1  -0.000000  0.107519  0.573865  1
  O  O529  1  0.500066  0.035241  0.578411  1
  O  O530  1  -0.000000  0.035463  0.572099  1
  O  O531  1  0.500086  0.178641  0.580700  1
  O  O532  1  0.500146  0.320932  0.570027  1
  O  O533  1  0.000000  0.179179  0.570063  1
  O  O534  1  0.500057  0.084570  0.644398  1
  O  O535  1  0.626995  0.136072  0.644353  1
  O  O536  1  0.600456  0.000000  0.557053  1
  O  O537  1  0.500068  0.464725  0.440038  1
  O  O538  1  0.000000  0.535415  0.433734  1
  O  O539  1  -0.000000  0.464742  0.433616  1
  O  O540  1  0.500178  0.535353  0.439943  1
  O  O541  1  0.751189  0.608797  0.465403  1
  O  O542  1  0.251302  0.391017  0.408229  1
  O  O543  1  0.749114  0.608816  0.408277  1
  O  O544  1  0.249142  0.390975  0.465461  1
  O  O545  1  0.749215  0.390961  0.408231  1
  O  O546  1  0.249234  0.608834  0.465412  1
  O  O547  1  0.751167  0.390981  0.465432  1
  O  O548  1  0.251148  0.608781  0.408255  1
  O  O549  1  0.662943  0.575627  0.489822  1
  O  O550  1  0.162887  0.424679  0.383908  1
  O  O551  1  0.837358  0.575460  0.383867  1
  O  O552  1  0.337360  0.424786  0.489780  1
  O  O553  1  0.837230  0.424698  0.383884  1
  O  O554  1  0.337359  0.575400  0.489818  1
  O  O555  1  0.663058  0.424623  0.489782  1
  O  O556  1  0.162893  0.575599  0.383835  1
  O  O557  1  0.746724  0.535999  0.465094  1
  O  O558  1  0.246195  0.463720  0.408965  1
  O  O559  1  0.753464  0.535999  0.408614  1
  O  O560  1  0.253997  0.463701  0.464695  1
  O  O561  1  0.754051  0.463681  0.408976  1
  O  O562  1  0.253358  0.536019  0.465063  1
  O  O563  1  0.746293  0.463693  0.464720  1
  O  O564  1  0.246634  0.536005  0.408579  1
  O  O565  1  0.593441  0.574502  0.461199  1
  O  O566  1  0.093420  0.425033  0.412537  1
  O  O567  1  0.906770  0.574483  0.412486  1
  O  O568  1  0.406895  0.425078  0.461162  1
  O  O569  1  0.906978  0.425070  0.412488  1
  O  O570  1  0.406808  0.574432  0.461200  1
  O  O571  1  0.593366  0.425101  0.461169  1
  O  O572  1  0.093365  0.574535  0.412463  1
  O  O573  1  0.750038  0.640150  0.436853  1
  O  O574  1  0.250090  0.359833  0.436832  1
  O  O575  1  0.750136  0.359712  0.436842  1
  O  O576  1  0.249966  0.640100  0.436817  1
  O  O577  1  0.599471  0.647402  0.419053  1
  O  O578  1  0.099577  0.352354  0.454652  1
  O  O579  1  0.900630  0.647488  0.454638  1
  O  O580  1  0.400706  0.352309  0.419043  1
  O  O581  1  0.900614  0.352280  0.454655  1
  O  O582  1  0.400608  0.647426  0.419042  1
  O  O583  1  0.599658  0.352348  0.419020  1
  O  O584  1  0.099498  0.647372  0.454640  1
  O  O585  1  0.500188  0.392791  0.438159  1
  O  O586  1  0.873110  0.636107  0.367697  1
  O  O587  1  -0.000000  0.607392  0.435326  1
  O  O588  1  0.600460  0.499871  0.418667  1
  O  O589  1  0.100417  0.499871  0.454991  1
  O  O590  1  0.899749  0.499921  0.454994  1
  O  O591  1  0.399739  0.499921  0.418665  1
  O  O592  1  0.750012  0.500985  0.436851  1
  O  O593  1  0.250086  0.501018  0.436828  1
  O  O594  1  0.500000  0.607289  0.438334  1
  O  O595  1  -0.000000  0.392772  0.435526  1
  O  O596  1  0.127231  0.364002  0.367725  1
  O  O597  1  0.627215  0.363953  0.505974  1
  O  O598  1  0.000000  0.415411  0.367641  1
  O  O599  1  0.000000  0.584788  0.367619  1
  O  O600  1  -0.000000  0.464787  0.578440  1
  O  O601  1  0.251151  0.608857  0.603835  1
  O  O602  1  0.751431  0.391071  0.546640  1
  O  O603  1  0.249005  0.608830  0.546662  1
  O  O604  1  0.749275  0.390989  0.603867  1
  O  O605  1  0.249098  0.391005  0.546638  1
  O  O606  1  0.749400  0.608875  0.603792  1
  O  O607  1  0.251064  0.391039  0.603874  1
  O  O608  1  0.751189  0.608854  0.546699  1
  O  O609  1  0.162785  0.575422  0.628195  1
  O  O610  1  0.663077  0.424552  0.522275  1
  O  O611  1  0.337457  0.575385  0.522296  1
  O  O612  1  0.837301  0.424814  0.628199  1
  O  O613  1  0.337364  0.424758  0.522291  1
  O  O614  1  0.837246  0.575551  0.628222  1
  O  O615  1  0.163007  0.424585  0.628239  1
  O  O616  1  0.662968  0.575636  0.522274  1
  O  O617  1  0.247085  0.536047  0.603466  1
  O  O618  1  0.745871  0.463763  0.547345  1
  O  O619  1  0.253767  0.536019  0.547098  1
  O  O620  1  0.753812  0.463729  0.603120  1
  O  O621  1  0.254201  0.463715  0.547380  1
  O  O622  1  0.753305  0.536059  0.603474  1
  O  O623  1  0.246412  0.463742  0.603219  1
  O  O624  1  0.746648  0.536042  0.547012  1
  O  O625  1  0.093592  0.574440  0.599554  1
  O  O626  1  0.593334  0.424921  0.550890  1
  O  O627  1  0.406843  0.574700  0.550923  1
  O  O628  1  0.906874  0.425214  0.599592  1
  O  O629  1  0.406954  0.425011  0.550906  1
  O  O630  1  0.906918  0.574365  0.599621  1
  O  O631  1  0.093358  0.425259  0.599617  1
  O  O632  1  0.593440  0.574570  0.550890  1
  O  O633  1  0.250221  0.640039  0.575250  1
  O  O634  1  0.749905  0.359837  0.575235  1
  O  O635  1  0.250224  0.359840  0.575272  1
  O  O636  1  0.750048  0.640305  0.575240  1
  O  O637  1  0.099489  0.647435  0.557486  1
  O  O638  1  0.599578  0.352401  0.593104  1
  O  O639  1  0.400795  0.647465  0.593048  1
  O  O640  1  0.900691  0.352364  0.557491  1
  O  O641  1  0.400604  0.352360  0.593114  1
  O  O642  1  0.900641  0.647516  0.557469  1
  O  O643  1  0.099590  0.352415  0.557484  1
  O  O644  1  0.599722  0.647504  0.593082  1
  O  O645  1  0.626993  0.636272  0.506069  1
  O  O646  1  0.499980  0.535282  0.572074  1
  O  O647  1  0.500284  0.464565  0.572026  1
  O  O648  1  0.372911  0.635976  0.506047  1
  O  O649  1  0.872889  0.364162  0.644385  1
  O  O650  1  0.500197  0.584779  0.506047  1
  O  O651  1  -0.000000  0.535365  0.578299  1
  O  O652  1  0.500258  0.415423  0.506032  1
  O  O653  1  0.000000  0.392901  0.576607  1
  O  O654  1  0.100462  0.499865  0.557032  1
  O  O655  1  0.600408  0.499912  0.593365  1
  O  O656  1  0.399802  0.499819  0.593352  1
  O  O657  1  0.899673  0.499833  0.557036  1
  O  O658  1  0.249475  0.500807  0.575303  1
  O  O659  1  0.750241  0.500998  0.575242  1
  O  O660  1  0.000000  0.607265  0.576738  1
  O  O661  1  0.500042  0.392550  0.573880  1
  O  O662  1  0.500442  0.607288  0.573819  1
  O  O663  1  0.127218  0.636142  0.644305  1
  O  O664  1  0.372973  0.364207  0.506030  1
  O  O665  1  0.003619  0.750317  0.436665  1
  O  O666  1  0.497088  0.750029  0.436842  1
  O  O667  1  0.751140  0.891081  0.408274  1
  O  O668  1  0.749212  0.891038  0.465365  1
  O  O669  1  0.249045  0.891109  0.408248  1
  O  O670  1  0.251219  0.891135  0.465419  1
  O  O671  1  0.663045  0.924538  0.383925  1
  O  O672  1  0.837188  0.924725  0.489701  1
  O  O673  1  0.337458  0.924567  0.383865  1
  O  O674  1  0.162822  0.924391  0.489814  1
  O  O675  1  0.746083  0.963785  0.408974  1
  O  O676  1  0.753928  0.963777  0.464640  1
  O  O677  1  0.253419  0.963951  0.408606  1
  O  O678  1  0.246765  0.963957  0.465096  1
  O  O679  1  0.593155  0.925127  0.412513  1
  O  O680  1  0.907016  0.925216  0.461125  1
  O  O681  1  0.406593  0.925450  0.412508  1
  O  O682  1  0.093607  0.925463  0.461162  1
  O  O683  1  0.757038  0.681853  0.410928  1
  O  O684  1  0.757065  0.817984  0.462730  1
  O  O685  1  0.742818  0.681792  0.462823  1
  O  O686  1  0.742952  0.818080  0.410817  1
  O  O687  1  0.242575  0.818135  0.462810  1
  O  O688  1  0.242886  0.681766  0.410843  1
  O  O689  1  0.257345  0.818073  0.410933  1
  O  O690  1  0.257084  0.681871  0.462720  1
  O  O691  1  0.749963  0.859680  0.436806  1
  O  O692  1  0.250035  0.859827  0.436848  1
  O  O693  1  0.599449  0.852464  0.454625  1
  O  O694  1  0.900667  0.852427  0.419040  1
  O  O695  1  0.400517  0.852356  0.454651  1
  O  O696  1  0.099592  0.852419  0.419027  1
  O  O697  1  0.750014  0.749906  0.473934  1
  O  O698  1  0.750029  0.749952  0.399735  1
  O  O699  1  0.249992  0.749944  0.399792  1
  O  O700  1  0.250031  0.750001  0.473891  1
  O  O701  1  0.655485  0.697889  0.489779  1
  O  O702  1  0.655591  0.801959  0.383861  1
  O  O703  1  0.844398  0.697752  0.383990  1
  O  O704  1  0.844839  0.802070  0.489625  1
  O  O705  1  0.342941  0.802278  0.383799  1
  O  O706  1  0.342892  0.697593  0.489837  1
  O  O707  1  0.156910  0.802182  0.489956  1
  O  O708  1  0.157550  0.697716  0.383659  1
  O  O709  1  0.593448  0.722402  0.461629  1
  O  O710  1  0.593530  0.777533  0.412031  1
  O  O711  1  0.906562  0.722382  0.412078  1
  O  O712  1  0.906455  0.777343  0.461501  1
  O  O713  1  0.407606  0.777996  0.411644  1
  O  O714  1  0.407490  0.721919  0.461998  1
  O  O715  1  0.092451  0.777984  0.462047  1
  O  O716  1  0.092433  0.721711  0.411539  1
  O  O717  1  -0.000000  0.686408  0.367649  1
  O  O718  1  0.500032  0.678837  0.442152  1
  O  O719  1  0.000000  0.964798  0.439987  1
  O  O720  1  -0.000000  0.821331  0.442239  1
  O  O721  1  -0.000000  0.678977  0.431580  1
  O  O722  1  0.500024  0.821187  0.431479  1
  O  O723  1  0.249961  0.998926  0.436848  1
  O  O724  1  0.499647  0.892740  0.435445  1
  O  O725  1  -0.000000  0.892851  0.438193  1
  O  O726  1  0.500406  0.964723  0.433669  1
  O  O727  1  0.500381  0.915228  0.367663  1
  O  O728  1  0.000000  0.915225  0.505981  1
  O  O729  1  0.627217  0.863778  0.367704  1
  O  O730  1  0.872879  0.863934  0.505807  1
  O  O731  1  0.373044  0.864006  0.367656  1
  O  O732  1  0.500497  0.821235  0.580608  1
  O  O733  1  0.500519  0.678876  0.569963  1
  O  O734  1  0.497475  0.750155  0.575162  1
  O  O735  1  0.251277  0.891177  0.546637  1
  O  O736  1  0.249072  0.891149  0.603851  1
  O  O737  1  0.749214  0.891143  0.546659  1
  O  O738  1  0.750931  0.891122  0.603810  1
  O  O739  1  0.162514  0.924522  0.522270  1
  O  O740  1  0.337601  0.924575  0.628220  1
  O  O741  1  0.837064  0.924388  0.522191  1
  O  O742  1  0.663136  0.924365  0.628274  1
  O  O743  1  0.246600  0.963976  0.546998  1
  O  O744  1  0.253397  0.963969  0.603487  1
  O  O745  1  0.753607  0.963926  0.546972  1
  O  O746  1  0.746824  0.963903  0.603516  1
  O  O747  1  0.093530  0.925367  0.550926  1
  O  O748  1  0.406669  0.925472  0.599577  1
  O  O749  1  0.906969  0.925440  0.550796  1
  O  O750  1  0.593289  0.925556  0.599667  1
  O  O751  1  0.257149  0.681887  0.549373  1
  O  O752  1  0.257144  0.818120  0.601098  1
  O  O753  1  0.243017  0.681882  0.601128  1
  O  O754  1  0.243111  0.818184  0.549341  1
  O  O755  1  0.742847  0.818136  0.601210  1
  O  O756  1  0.743041  0.681860  0.549229  1
  O  O757  1  0.757235  0.818134  0.549271  1
  O  O758  1  0.757444  0.681915  0.601213  1
  O  O759  1  0.250015  0.860018  0.575237  1
  O  O760  1  0.750132  0.859798  0.575238  1
  O  O761  1  0.099412  0.852613  0.593033  1
  O  O762  1  0.400775  0.852581  0.557485  1
  O  O763  1  0.900544  0.852512  0.593050  1
  O  O764  1  0.599624  0.852562  0.557444  1
  O  O765  1  0.250683  0.749975  0.612284  1
  O  O766  1  0.250723  0.750071  0.538233  1
  O  O767  1  0.750733  0.749979  0.538140  1
  O  O768  1  0.750622  0.750072  0.612365  1
  O  O769  1  0.155533  0.697923  0.628028  1
  O  O770  1  0.155905  0.802128  0.522405  1
  O  O771  1  0.342864  0.697579  0.522244  1
  O  O772  1  0.343161  0.802490  0.628210  1
  O  O773  1  0.842646  0.802457  0.522075  1
  O  O774  1  0.843246  0.697726  0.628358  1
  O  O775  1  0.655776  0.802126  0.628187  1
  O  O776  1  0.655834  0.698046  0.522273  1
  O  O777  1  0.093904  0.722679  0.599909  1
  O  O778  1  0.093852  0.777550  0.550510  1
  O  O779  1  0.407936  0.721769  0.550078  1
  O  O780  1  0.407779  0.778101  0.600365  1
  O  O781  1  0.907991  0.778326  0.549927  1
  O  O782  1  0.907884  0.721961  0.600474  1
  O  O783  1  0.593760  0.777442  0.600059  1
  O  O784  1  0.593862  0.722455  0.550423  1
  O  O785  1  0.000000  0.821126  0.569949  1
  O  O786  1  -0.000000  0.678779  0.580626  1
  O  O787  1  0.500125  0.964645  0.578361  1
  O  O788  1  0.000000  0.964729  0.572044  1
  O  O789  1  0.500388  0.892746  0.576736  1
  O  O790  1  -0.000000  0.892725  0.573771  1
  O  O791  1  0.996465  0.749836  0.575122  1
  O  O792  1  0.749891  0.998808  0.575254  1
  O  O793  1  0.250126  0.998947  0.575240  1
  O  O794  1  0.499589  0.686415  0.506062  1
  O  O795  1  -0.000000  0.813620  0.506084  1
  O  O796  1  0.127045  0.863845  0.506118  1
  O  O797  1  0.100328  -0.000000  0.593378  1
  O  O798  1  0.499731  0.813624  0.644438  1
  O  O799  1  0.399757  0.000000  0.731804  1
  O  O800  1  0.600435  -0.000000  0.731802  1
  O  O801  1  0.100435  0.000000  0.695478  1
  O  O802  1  0.497566  0.250324  0.713481  1
  O  O803  1  0.996790  0.250151  0.713701  1
  O  O804  1  0.251073  0.108936  0.742271  1
  O  O805  1  0.249325  0.108955  0.685033  1
  O  O806  1  0.749296  0.108918  0.742273  1
  O  O807  1  0.751218  0.108879  0.685032  1
  O  O808  1  0.162952  0.075254  0.766604  1
  O  O809  1  0.337336  0.075175  0.660697  1
  O  O810  1  0.837338  0.075443  0.766697  1
  O  O811  1  0.662895  0.075557  0.660613  1
  O  O812  1  0.246201  0.036237  0.741531  1
  O  O813  1  0.254154  0.036247  0.685802  1
  O  O814  1  0.753472  0.036084  0.741919  1
  O  O815  1  0.746693  0.036064  0.685356  1
  O  O816  1  0.093211  0.074844  0.737998  1
  O  O817  1  0.407149  0.074875  0.689289  1
  O  O818  1  0.906745  0.074498  0.738063  1
  O  O819  1  0.593603  0.074576  0.689263  1
  O  O820  1  0.257024  0.181971  0.687797  1
  O  O821  1  0.257383  0.317953  0.739530  1
  O  O822  1  0.243203  0.181929  0.739555  1
  O  O823  1  0.242885  0.318036  0.687727  1
  O  O824  1  0.742824  0.317991  0.739626  1
  O  O825  1  0.742882  0.181858  0.687689  1
  O  O826  1  0.757345  0.317942  0.687731  1
  O  O827  1  0.757434  0.181938  0.739547  1
  O  O828  1  0.250146  0.140050  0.713663  1
  O  O829  1  0.750099  0.140102  0.713641  1
  O  O830  1  0.099497  0.147383  0.695860  1
  O  O831  1  0.400814  0.147443  0.731453  1
  O  O832  1  0.900601  0.147572  0.695840  1
  O  O833  1  0.599724  0.147516  0.731482  1
  O  O834  1  0.250671  0.249921  0.750806  1
  O  O835  1  0.250738  0.250029  0.676532  1
  O  O836  1  0.750673  0.249880  0.676488  1
  O  O837  1  0.750736  0.249982  0.750829  1
  O  O838  1  0.155739  0.197691  0.766499  1
  O  O839  1  0.155677  0.302127  0.660766  1
  O  O840  1  0.342762  0.197341  0.660630  1
  O  O841  1  0.343520  0.302516  0.766645  1
  O  O842  1  0.842966  0.302469  0.660548  1
  O  O843  1  0.843168  0.197348  0.766720  1
  O  O844  1  0.655538  0.302070  0.766589  1
  O  O845  1  0.656010  0.197730  0.660678  1
  O  O846  1  0.093930  0.222554  0.738403  1
  O  O847  1  0.093821  0.277353  0.688887  1
  O  O848  1  0.407876  0.221764  0.688445  1
  O  O849  1  0.407843  0.277897  0.738794  1
  O  O850  1  0.907936  0.278058  0.688392  1
  O  O851  1  0.908034  0.221855  0.738909  1
  O  O852  1  0.593822  0.277282  0.738460  1
  O  O853  1  0.593700  0.222414  0.688771  1
  O  O854  1  0.499620  0.186169  0.644518  1
  O  O855  1  0.500453  0.321280  0.719082  1
  O  O856  1  0.500445  0.178988  0.708391  1
  O  O857  1  0.899706  0.000000  0.695474  1
  O  O858  1  0.750065  0.001222  0.713635  1
  O  O859  1  -0.000000  0.107392  0.715133  1
  O  O860  1  0.500608  0.107402  0.712185  1
  O  O861  1  0.000000  0.035443  0.716783  1
  O  O862  1  0.499827  0.035413  0.710490  1
  O  O863  1  0.000000  0.178941  0.718950  1
  O  O864  1  0.000000  0.321233  0.708266  1
  O  O865  1  -0.000000  0.313846  0.644485  1
  O  O866  1  0.656135  0.302273  0.799059  1
  O  O867  1  0.342982  0.302521  0.799042  1
  O  O868  1  0.499820  0.313817  0.782900  1
  O  O869  1  0.500068  0.464725  0.716860  1
  O  O870  1  -0.000000  0.535415  0.710556  1
  O  O871  1  -0.000000  0.464742  0.710438  1
  O  O872  1  0.500178  0.535353  0.716765  1
  O  O873  1  0.751189  0.608797  0.742225  1
  O  O874  1  0.251302  0.391017  0.685051  1
  O  O875  1  0.749114  0.608816  0.685099  1
  O  O876  1  0.249142  0.390975  0.742283  1
  O  O877  1  0.749215  0.390961  0.685053  1
  O  O878  1  0.249234  0.608834  0.742234  1
  O  O879  1  0.751167  0.390981  0.742254  1
  O  O880  1  0.251148  0.608781  0.685076  1
  O  O881  1  0.662943  0.575627  0.766644  1
  O  O882  1  0.162887  0.424679  0.660729  1
  O  O883  1  0.837358  0.575460  0.660689  1
  O  O884  1  0.337360  0.424786  0.766602  1
  O  O885  1  0.837230  0.424698  0.660705  1
  O  O886  1  0.337359  0.575400  0.766640  1
  O  O887  1  0.663058  0.424623  0.766604  1
  O  O888  1  0.162893  0.575599  0.660657  1
  O  O889  1  0.746724  0.535999  0.741916  1
  O  O890  1  0.246195  0.463720  0.685787  1
  O  O891  1  0.753464  0.535999  0.685436  1
  O  O892  1  0.253997  0.463701  0.741517  1
  O  O893  1  0.754051  0.463681  0.685798  1
  O  O894  1  0.253358  0.536019  0.741884  1
  O  O895  1  0.746293  0.463693  0.741542  1
  O  O896  1  0.246634  0.536005  0.685400  1
  O  O897  1  0.593441  0.574502  0.738021  1
  O  O898  1  0.093420  0.425033  0.689359  1
  O  O899  1  0.906770  0.574483  0.689308  1
  O  O900  1  0.406895  0.425078  0.737984  1
  O  O901  1  0.906978  0.425070  0.689310  1
  O  O902  1  0.406808  0.574432  0.738022  1
  O  O903  1  0.593366  0.425101  0.737991  1
  O  O904  1  0.093365  0.574535  0.689285  1
  O  O905  1  0.750038  0.640150  0.713675  1
  O  O906  1  0.250090  0.359833  0.713653  1
  O  O907  1  0.750136  0.359712  0.713664  1
  O  O908  1  0.249966  0.640100  0.713639  1
  O  O909  1  0.599471  0.647402  0.695875  1
  O  O910  1  0.099577  0.352354  0.731474  1
  O  O911  1  0.900630  0.647488  0.731460  1
  O  O912  1  0.400706  0.352309  0.695864  1
  O  O913  1  0.900614  0.352280  0.731477  1
  O  O914  1  0.400608  0.647426  0.695863  1
  O  O915  1  0.599658  0.352348  0.695842  1
  O  O916  1  0.099498  0.647372  0.731462  1
  O  O917  1  0.500188  0.392791  0.714981  1
  O  O918  1  0.873110  0.636107  0.644519  1
  O  O919  1  0.000000  0.607392  0.712147  1
  O  O920  1  0.600460  0.499871  0.695489  1
  O  O921  1  0.100417  0.499871  0.731813  1
  O  O922  1  0.899749  0.499921  0.731816  1
  O  O923  1  0.399739  0.499921  0.695487  1
  O  O924  1  0.750012  0.500985  0.713673  1
  O  O925  1  0.250086  0.501018  0.713650  1
  O  O926  1  0.500000  0.607289  0.715155  1
  O  O927  1  0.000000  0.392772  0.712348  1
  O  O928  1  0.127231  0.364002  0.644547  1
  O  O929  1  0.627215  0.363953  0.782796  1
  O  O930  1  0.000000  0.415411  0.644463  1
  O  O931  1  0.000000  0.584788  0.644440  1
  O  O932  1  0.663077  0.424552  0.799096  1
  O  O933  1  0.337364  0.424758  0.799113  1
  O  O934  1  0.500258  0.415423  0.782854  1
  O  O935  1  0.372973  0.364207  0.782852  1
  O  O936  1  0.003619  0.750317  0.713486  1
  O  O937  1  0.497088  0.750029  0.713664  1
  O  O938  1  0.751140  0.891081  0.685096  1
  O  O939  1  0.749212  0.891038  0.742187  1
  O  O940  1  0.249045  0.891109  0.685070  1
  O  O941  1  0.251219  0.891135  0.742241  1
  O  O942  1  0.663045  0.924538  0.660747  1
  O  O943  1  0.837188  0.924725  0.766523  1
  O  O944  1  0.337458  0.924567  0.660687  1
  O  O945  1  0.162822  0.924391  0.766636  1
  O  O946  1  0.746083  0.963785  0.685795  1
  O  O947  1  0.753928  0.963777  0.741462  1
  O  O948  1  0.253419  0.963951  0.685428  1
  O  O949  1  0.246765  0.963957  0.741918  1
  O  O950  1  0.593155  0.925127  0.689335  1
  O  O951  1  0.907016  0.925216  0.737946  1
  O  O952  1  0.406593  0.925450  0.689330  1
  O  O953  1  0.093607  0.925463  0.737984  1
  O  O954  1  0.757038  0.681853  0.687749  1
  O  O955  1  0.757065  0.817984  0.739552  1
  O  O956  1  0.742818  0.681792  0.739644  1
  O  O957  1  0.742952  0.818080  0.687639  1
  O  O958  1  0.242575  0.818135  0.739631  1
  O  O959  1  0.242886  0.681766  0.687665  1
  O  O960  1  0.257345  0.818073  0.687754  1
  O  O961  1  0.257084  0.681871  0.739542  1
  O  O962  1  0.749963  0.859680  0.713628  1
  O  O963  1  0.250035  0.859827  0.713670  1
  O  O964  1  0.599449  0.852464  0.731447  1
  O  O965  1  0.900667  0.852427  0.695862  1
  O  O966  1  0.400517  0.852356  0.731473  1
  O  O967  1  0.099592  0.852419  0.695849  1
  O  O968  1  0.750014  0.749906  0.750756  1
  O  O969  1  0.750029  0.749952  0.676556  1
  O  O970  1  0.249992  0.749944  0.676614  1
  O  O971  1  0.250031  0.750001  0.750713  1
  O  O972  1  0.655485  0.697889  0.766601  1
  O  O973  1  0.655591  0.801959  0.660683  1
  O  O974  1  0.844398  0.697752  0.660812  1
  O  O975  1  0.844839  0.802070  0.766447  1
  O  O976  1  0.342941  0.802278  0.660620  1
  O  O977  1  0.342892  0.697593  0.766658  1
  O  O978  1  0.156910  0.802182  0.766778  1
  O  O979  1  0.157550  0.697716  0.660481  1
  O  O980  1  0.593448  0.722402  0.738451  1
  O  O981  1  0.593530  0.777533  0.688853  1
  O  O982  1  0.906562  0.722382  0.688900  1
  O  O983  1  0.906455  0.777343  0.738323  1
  O  O984  1  0.407606  0.777996  0.688466  1
  O  O985  1  0.407490  0.721919  0.738820  1
  O  O986  1  0.092451  0.777984  0.738868  1
  O  O987  1  0.092433  0.721711  0.688361  1
  O  O988  1  -0.000000  0.686408  0.644471  1
  O  O989  1  0.500032  0.678837  0.718974  1
  O  O990  1  -0.000000  0.964798  0.716809  1
  O  O991  1  -0.000000  0.821331  0.719061  1
  O  O992  1  -0.000000  0.678977  0.708401  1
  O  O993  1  0.500024  0.821187  0.708300  1
  O  O994  1  0.249961  0.998926  0.713670  1
  O  O995  1  0.499647  0.892740  0.712267  1
  O  O996  1  -0.000000  0.892851  0.715015  1
  O  O997  1  0.500406  0.964723  0.710491  1
  O  O998  1  0.500381  0.915228  0.644485  1
  O  O999  1  0.627217  0.863778  0.644526  1
  O  O1000  1  0.373044  0.864006  0.644478  1
  Si  Si1001  1  0.191929  0.072817  0.193811  1
  Si  Si1002  1  0.308391  0.072814  0.126206  1
  Si  Si1003  1  0.808151  0.072818  0.193931  1
  Si  Si1004  1  0.692125  0.072842  0.126085  1
  Si  Si1005  1  0.213764  0.144579  0.141452  1
  Si  Si1006  1  0.286553  0.144597  0.178586  1
  Si  Si1007  1  0.786350  0.144605  0.141419  1
  Si  Si1008  1  0.714002  0.144602  0.178585  1
  Si  Si1009  1  0.186633  0.213704  0.195372  1
  Si  Si1010  1  0.186523  0.286206  0.124628  1
  Si  Si1011  1  0.313694  0.213494  0.124538  1
  Si  Si1012  1  0.313953  0.286365  0.195476  1
  Si  Si1013  1  0.813813  0.286375  0.124467  1
  Si  Si1014  1  0.813899  0.213495  0.195532  1
  Si  Si1015  1  0.686491  0.286157  0.195442  1
  Si  Si1016  1  0.686591  0.213657  0.124556  1
  Si  Si1017  1  0.112153  0.179824  0.229125  1
  Si  Si1018  1  0.785017  0.000000  0.141220  1
  Si  Si1019  1  0.000000  0.072655  0.173496  1
  Si  Si1020  1  0.500399  0.072679  0.146525  1
  Si  Si1021  1  0.000000  0.146116  0.151988  1
  Si  Si1022  1  0.500309  0.146126  0.168044  1
  Si  Si1023  1  -0.000000  0.218829  0.173878  1
  Si  Si1024  1  0.000000  0.281234  0.146128  1
  Si  Si1025  1  0.500176  0.218793  0.146110  1
  Si  Si1026  1  0.500210  0.281197  0.173863  1
  Si  Si1027  1  -0.000000  0.000000  0.151399  1
  Si  Si1028  1  0.500089  0.000000  0.168587  1
  Si  Si1029  1  0.715124  -0.000000  0.178763  1
  Si  Si1030  1  0.611867  0.320080  0.229182  1
  Si  Si1031  1  0.692049  0.072825  0.332187  1
  Si  Si1032  1  0.808183  0.072840  0.264680  1
  Si  Si1033  1  0.308113  0.072821  0.332208  1
  Si  Si1034  1  0.191925  0.072867  0.264622  1
  Si  Si1035  1  0.713754  0.144706  0.279866  1
  Si  Si1036  1  0.786352  0.144729  0.317023  1
  Si  Si1037  1  0.286310  0.144689  0.279843  1
  Si  Si1038  1  0.213861  0.144714  0.317007  1
  Si  Si1039  1  0.686188  0.213749  0.333860  1
  Si  Si1040  1  0.686432  0.286375  0.262955  1
  Si  Si1041  1  0.813724  0.213702  0.263007  1
  Si  Si1042  1  0.813908  0.286273  0.333812  1
  Si  Si1043  1  0.313570  0.286401  0.262939  1
  Si  Si1044  1  0.313763  0.213689  0.333885  1
  Si  Si1045  1  0.186389  0.286355  0.333945  1
  Si  Si1046  1  0.186547  0.213601  0.262877  1
  Si  Si1047  1  0.888140  0.179744  0.229291  1
  Si  Si1048  1  0.387857  0.320325  0.229220  1
  Si  Si1049  1  0.612787  0.092038  0.367547  1
  Si  Si1050  1  0.887515  0.091854  0.229307  1
  Si  Si1051  1  0.387204  0.091736  0.367605  1
  Si  Si1052  1  0.500052  0.072584  0.311858  1
  Si  Si1053  1  -0.000000  0.072817  0.285012  1
  Si  Si1054  1  0.500015  0.146088  0.290403  1
  Si  Si1055  1  0.000000  0.146283  0.306518  1
  Si  Si1056  1  0.499973  0.218771  0.312266  1
  Si  Si1057  1  0.500008  0.281185  0.284517  1
  Si  Si1058  1  -0.000000  0.218879  0.284520  1
  Si  Si1059  1  -0.000000  0.281261  0.312285  1
  Si  Si1060  1  -0.000000  -0.000000  0.306978  1
  Si  Si1061  1  0.887961  0.320285  0.367557  1
  Si  Si1062  1  0.113088  0.091913  0.229212  1
  Si  Si1063  1  0.387672  0.179630  0.367614  1
  Si  Si1064  1  0.692066  0.572774  0.193883  1
  Si  Si1065  1  0.192033  0.427110  0.126227  1
  Si  Si1066  1  0.808141  0.572753  0.126164  1
  Si  Si1067  1  0.308230  0.427123  0.193813  1
  Si  Si1068  1  0.808254  0.427096  0.126212  1
  Si  Si1069  1  0.308156  0.572741  0.193875  1
  Si  Si1070  1  0.692061  0.427094  0.193813  1
  Si  Si1071  1  0.191978  0.572770  0.126132  1
  Si  Si1072  1  0.713726  0.644540  0.141457  1
  Si  Si1073  1  0.213842  0.355289  0.178587  1
  Si  Si1074  1  0.786379  0.644574  0.178602  1
  Si  Si1075  1  0.286465  0.355288  0.141440  1
  Si  Si1076  1  0.786354  0.355229  0.178602  1
  Si  Si1077  1  0.286361  0.644536  0.141427  1
  Si  Si1078  1  0.713927  0.355246  0.141438  1
  Si  Si1079  1  0.213766  0.644528  0.178575  1
  Si  Si1080  1  0.715156  0.500002  0.141252  1
  Si  Si1081  1  0.215103  0.500020  0.178776  1
  Si  Si1082  1  0.785069  0.500027  0.178795  1
  Si  Si1083  1  0.285050  0.500049  0.141235  1
  Si  Si1084  1  0.500122  0.572521  0.173501  1
  Si  Si1085  1  -0.000000  0.427318  0.146577  1
  Si  Si1086  1  -0.000000  0.572590  0.146535  1
  Si  Si1087  1  0.500142  0.427342  0.173460  1
  Si  Si1088  1  0.500020  0.646012  0.152010  1
  Si  Si1089  1  0.000000  0.353850  0.168060  1
  Si  Si1090  1  0.000000  0.646078  0.168033  1
  Si  Si1091  1  0.500213  0.353868  0.151983  1
  Si  Si1092  1  0.500096  0.499970  0.151412  1
  Si  Si1093  1  -0.000000  0.499992  0.168598  1
  Si  Si1094  1  0.613011  0.407991  0.229201  1
  Si  Si1095  1  0.192153  0.572752  0.332260  1
  Si  Si1096  1  0.691997  0.427092  0.264600  1
  Si  Si1097  1  0.308239  0.572774  0.264597  1
  Si  Si1098  1  0.808171  0.427171  0.332231  1
  Si  Si1099  1  0.308288  0.427109  0.264617  1
  Si  Si1100  1  0.808193  0.572775  0.332276  1
  Si  Si1101  1  0.192020  0.427145  0.332276  1
  Si  Si1102  1  0.692081  0.572829  0.264571  1
  Si  Si1103  1  0.213734  0.644546  0.279869  1
  Si  Si1104  1  0.713859  0.355315  0.317003  1
  Si  Si1105  1  0.286538  0.644565  0.316997  1
  Si  Si1106  1  0.786466  0.355327  0.279852  1
  Si  Si1107  1  0.286335  0.355316  0.317037  1
  Si  Si1108  1  0.786390  0.644649  0.279845  1
  Si  Si1109  1  0.213837  0.355329  0.279879  1
  Si  Si1110  1  0.714009  0.644647  0.317009  1
  Si  Si1111  1  0.387416  0.408217  0.229212  1
  Si  Si1112  1  0.215197  0.499991  0.279671  1
  Si  Si1113  1  0.715081  0.500055  0.317181  1
  Si  Si1114  1  0.285169  0.499980  0.317210  1
  Si  Si1115  1  0.784966  0.500028  0.279635  1
  Si  Si1116  1  -0.000000  0.572478  0.311893  1
  Si  Si1117  1  0.500174  0.427160  0.284972  1
  Si  Si1118  1  0.500200  0.572589  0.284964  1
  Si  Si1119  1  0.000000  0.427464  0.311900  1
  Si  Si1120  1  0.000000  0.646025  0.290444  1
  Si  Si1121  1  0.500075  0.353764  0.306518  1
  Si  Si1122  1  0.500306  0.646061  0.306465  1
  Si  Si1123  1  -0.000000  0.353960  0.290446  1
  Si  Si1124  1  0.000000  0.499968  0.289776  1
  Si  Si1125  1  0.500112  0.499892  0.306960  1
  Si  Si1126  1  0.112867  0.592124  0.367593  1
  Si  Si1127  1  0.612914  0.592237  0.229226  1
  Si  Si1128  1  0.387375  0.591974  0.229232  1
  Si  Si1129  1  0.691924  0.927159  0.126249  1
  Si  Si1130  1  0.808207  0.927189  0.193731  1
  Si  Si1131  1  0.308061  0.927196  0.126155  1
  Si  Si1132  1  0.192118  0.927181  0.193883  1
  Si  Si1133  1  0.713720  0.855297  0.178562  1
  Si  Si1134  1  0.786416  0.855292  0.141418  1
  Si  Si1135  1  0.286266  0.855347  0.178605  1
  Si  Si1136  1  0.213848  0.855369  0.141444  1
  Si  Si1137  1  0.686196  0.713625  0.195414  1
  Si  Si1138  1  0.686271  0.786251  0.124591  1
  Si  Si1139  1  0.813700  0.713652  0.124678  1
  Si  Si1140  1  0.813806  0.786168  0.195312  1
  Si  Si1141  1  0.313491  0.786343  0.124549  1
  Si  Si1142  1  0.313395  0.713571  0.195455  1
  Si  Si1143  1  0.186423  0.786385  0.195537  1
  Si  Si1144  1  0.186660  0.713481  0.124462  1
  Si  Si1145  1  0.285079  -0.000000  0.178788  1
  Si  Si1146  1  0.611777  0.819910  0.090803  1
  Si  Si1147  1  0.887087  0.907958  0.229106  1
  Si  Si1148  1  0.387570  0.908004  0.090816  1
  Si  Si1149  1  0.499890  0.927402  0.146567  1
  Si  Si1150  1  0.000000  0.927481  0.173448  1
  Si  Si1151  1  0.499942  0.853899  0.168040  1
  Si  Si1152  1  -0.000000  0.853967  0.151989  1
  Si  Si1153  1  0.499776  0.718762  0.173868  1
  Si  Si1154  1  0.499840  0.781225  0.146141  1
  Si  Si1155  1  0.000000  0.718779  0.146121  1
  Si  Si1156  1  0.000000  0.781251  0.173839  1
  Si  Si1157  1  0.215134  -0.000000  0.141248  1
  Si  Si1158  1  0.888050  0.820062  0.229071  1
  Si  Si1159  1  0.387758  0.820120  0.090801  1
  Si  Si1160  1  0.613123  0.907820  0.090872  1
  Si  Si1161  1  0.191992  0.927206  0.264555  1
  Si  Si1162  1  0.308148  0.927228  0.332290  1
  Si  Si1163  1  0.808234  0.927168  0.264503  1
  Si  Si1164  1  0.692023  0.927172  0.332321  1
  Si  Si1165  1  0.213675  0.855479  0.316983  1
  Si  Si1166  1  0.286542  0.855484  0.279858  1
  Si  Si1167  1  0.786273  0.855384  0.317000  1
  Si  Si1168  1  0.713891  0.855412  0.279838  1
  Si  Si1169  1  0.186572  0.713781  0.333705  1
  Si  Si1170  1  0.186700  0.786303  0.263105  1
  Si  Si1171  1  0.313708  0.713538  0.263002  1
  Si  Si1172  1  0.313739  0.786483  0.333831  1
  Si  Si1173  1  0.813710  0.786526  0.262858  1
  Si  Si1174  1  0.813842  0.713600  0.333948  1
  Si  Si1175  1  0.686524  0.786282  0.333838  1
  Si  Si1176  1  0.686669  0.713755  0.262997  1
  Si  Si1177  1  0.611647  0.680140  0.229234  1
  Si  Si1178  1  0.112068  0.819963  0.229326  1
  Si  Si1179  1  0.785040  -0.000000  0.317192  1
  Si  Si1180  1  0.387625  0.679863  0.229219  1
  Si  Si1181  1  0.215004  0.000000  0.317180  1
  Si  Si1182  1  0.715161  0.000000  0.279648  1
  Si  Si1183  1  0.285004  0.000000  0.279643  1
  Si  Si1184  1  -0.000000  0.927437  0.284923  1
  Si  Si1185  1  0.500139  0.927482  0.311922  1
  Si  Si1186  1  0.000000  0.853973  0.306434  1
  Si  Si1187  1  0.500256  0.853998  0.290431  1
  Si  Si1188  1  0.000000  0.718812  0.312256  1
  Si  Si1189  1  -0.000000  0.781270  0.284531  1
  Si  Si1190  1  0.500256  0.718748  0.284557  1
  Si  Si1191  1  0.500200  0.781240  0.312269  1
  Si  Si1192  1  0.500082  -0.000000  0.289798  1
  Si  Si1193  1  0.112215  0.680024  0.367488  1
  Si  Si1194  1  0.112637  0.907859  0.229218  1
  Si  Si1195  1  0.191929  0.072817  0.470633  1
  Si  Si1196  1  0.308391  0.072814  0.403028  1
  Si  Si1197  1  0.808151  0.072818  0.470752  1
  Si  Si1198  1  0.692125  0.072842  0.402907  1
  Si  Si1199  1  0.213764  0.144579  0.418273  1
  Si  Si1200  1  0.286553  0.144597  0.455407  1
  Si  Si1201  1  0.786350  0.144605  0.418241  1
  Si  Si1202  1  0.714002  0.144602  0.455407  1
  Si  Si1203  1  0.186633  0.213704  0.472194  1
  Si  Si1204  1  0.186523  0.286206  0.401450  1
  Si  Si1205  1  0.313694  0.213494  0.401360  1
  Si  Si1206  1  0.313953  0.286365  0.472298  1
  Si  Si1207  1  0.813813  0.286375  0.401289  1
  Si  Si1208  1  0.813899  0.213495  0.472354  1
  Si  Si1209  1  0.686491  0.286157  0.472264  1
  Si  Si1210  1  0.686591  0.213657  0.401378  1
  Si  Si1211  1  0.112153  0.179824  0.505947  1
  Si  Si1212  1  0.111960  0.320127  0.367711  1
  Si  Si1213  1  0.611675  0.179941  0.367624  1
  Si  Si1214  1  0.785017  -0.000000  0.418042  1
  Si  Si1215  1  0.000000  0.072655  0.450318  1
  Si  Si1216  1  0.500399  0.072679  0.423347  1
  Si  Si1217  1  0.000000  0.146116  0.428809  1
  Si  Si1218  1  0.500309  0.146126  0.444866  1
  Si  Si1219  1  -0.000000  0.218829  0.450700  1
  Si  Si1220  1  -0.000000  0.281234  0.422949  1
  Si  Si1221  1  0.500176  0.218793  0.422931  1
  Si  Si1222  1  0.500210  0.281197  0.450685  1
  Si  Si1223  1  0.000000  0.000000  0.428221  1
  Si  Si1224  1  0.500089  0.000000  0.445409  1
  Si  Si1225  1  0.715124  0.000000  0.455585  1
  Si  Si1226  1  0.611867  0.320080  0.506004  1
  Si  Si1227  1  0.692049  0.072825  0.609009  1
  Si  Si1228  1  0.808183  0.072840  0.541502  1
  Si  Si1229  1  0.308113  0.072821  0.609029  1
  Si  Si1230  1  0.191925  0.072867  0.541444  1
  Si  Si1231  1  0.713754  0.144706  0.556688  1
  Si  Si1232  1  0.786352  0.144729  0.593845  1
  Si  Si1233  1  0.286310  0.144689  0.556665  1
  Si  Si1234  1  0.213861  0.144714  0.593829  1
  Si  Si1235  1  0.686188  0.213749  0.610682  1
  Si  Si1236  1  0.686432  0.286375  0.539777  1
  Si  Si1237  1  0.813724  0.213702  0.539829  1
  Si  Si1238  1  0.813908  0.286273  0.610634  1
  Si  Si1239  1  0.313570  0.286401  0.539761  1
  Si  Si1240  1  0.313763  0.213689  0.610707  1
  Si  Si1241  1  0.186389  0.286355  0.610767  1
  Si  Si1242  1  0.186547  0.213601  0.539699  1
  Si  Si1243  1  0.888140  0.179744  0.506113  1
  Si  Si1244  1  0.387857  0.320325  0.506042  1
  Si  Si1245  1  0.612787  0.092038  0.644368  1
  Si  Si1246  1  0.887515  0.091854  0.506129  1
  Si  Si1247  1  0.387204  0.091736  0.644427  1
  Si  Si1248  1  0.500052  0.072584  0.588680  1
  Si  Si1249  1  -0.000000  0.072817  0.561833  1
  Si  Si1250  1  0.500015  0.146088  0.567225  1
  Si  Si1251  1  0.000000  0.146283  0.583339  1
  Si  Si1252  1  0.499973  0.218771  0.589088  1
  Si  Si1253  1  0.500008  0.281185  0.561339  1
  Si  Si1254  1  -0.000000  0.218879  0.561342  1
  Si  Si1255  1  -0.000000  0.281261  0.589107  1
  Si  Si1256  1  0.000000  0.000000  0.583800  1
  Si  Si1257  1  0.887961  0.320285  0.644379  1
  Si  Si1258  1  0.113088  0.091913  0.506033  1
  Si  Si1259  1  0.387672  0.179630  0.644435  1
  Si  Si1260  1  0.692066  0.572774  0.470705  1
  Si  Si1261  1  0.192033  0.427110  0.403048  1
  Si  Si1262  1  0.808141  0.572753  0.402986  1
  Si  Si1263  1  0.308230  0.427123  0.470635  1
  Si  Si1264  1  0.808254  0.427096  0.403034  1
  Si  Si1265  1  0.308156  0.572741  0.470697  1
  Si  Si1266  1  0.692061  0.427094  0.470635  1
  Si  Si1267  1  0.191978  0.572770  0.402954  1
  Si  Si1268  1  0.713726  0.644540  0.418279  1
  Si  Si1269  1  0.213842  0.355289  0.455409  1
  Si  Si1270  1  0.786379  0.644574  0.455423  1
  Si  Si1271  1  0.286465  0.355288  0.418261  1
  Si  Si1272  1  0.786354  0.355229  0.455424  1
  Si  Si1273  1  0.286361  0.644536  0.418248  1
  Si  Si1274  1  0.713927  0.355246  0.418260  1
  Si  Si1275  1  0.213766  0.644528  0.455397  1
  Si  Si1276  1  0.112904  0.408032  0.367665  1
  Si  Si1277  1  0.887323  0.592089  0.367637  1
  Si  Si1278  1  0.715156  0.500002  0.418074  1
  Si  Si1279  1  0.215103  0.500020  0.455598  1
  Si  Si1280  1  0.785069  0.500027  0.455617  1
  Si  Si1281  1  0.285050  0.500049  0.418057  1
  Si  Si1282  1  0.500122  0.572521  0.450322  1
  Si  Si1283  1  0.000000  0.427318  0.423399  1
  Si  Si1284  1  0.000000  0.572590  0.423357  1
  Si  Si1285  1  0.500142  0.427342  0.450282  1
  Si  Si1286  1  0.500020  0.646012  0.428832  1
  Si  Si1287  1  -0.000000  0.353850  0.444881  1
  Si  Si1288  1  -0.000000  0.646078  0.444855  1
  Si  Si1289  1  0.500213  0.353868  0.428805  1
  Si  Si1290  1  0.500096  0.499970  0.428233  1
  Si  Si1291  1  0.000000  0.499992  0.445420  1
  Si  Si1292  1  0.887301  0.408179  0.367623  1
  Si  Si1293  1  0.613011  0.407991  0.506023  1
  Si  Si1294  1  0.192153  0.572752  0.609082  1
  Si  Si1295  1  0.691997  0.427092  0.541422  1
  Si  Si1296  1  0.308239  0.572774  0.541419  1
  Si  Si1297  1  0.808171  0.427171  0.609053  1
  Si  Si1298  1  0.308288  0.427109  0.541439  1
  Si  Si1299  1  0.808193  0.572775  0.609098  1
  Si  Si1300  1  0.192020  0.427145  0.609098  1
  Si  Si1301  1  0.692081  0.572829  0.541393  1
  Si  Si1302  1  0.213734  0.644546  0.556691  1
  Si  Si1303  1  0.713859  0.355315  0.593825  1
  Si  Si1304  1  0.286538  0.644565  0.593819  1
  Si  Si1305  1  0.786466  0.355327  0.556674  1
  Si  Si1306  1  0.286335  0.355316  0.593859  1
  Si  Si1307  1  0.786390  0.644649  0.556667  1
  Si  Si1308  1  0.213837  0.355329  0.556700  1
  Si  Si1309  1  0.714009  0.644647  0.593831  1
  Si  Si1310  1  0.387416  0.408217  0.506033  1
  Si  Si1311  1  0.215197  0.499991  0.556493  1
  Si  Si1312  1  0.715081  0.500055  0.594003  1
  Si  Si1313  1  0.285169  0.499980  0.594032  1
  Si  Si1314  1  0.784966  0.500028  0.556456  1
  Si  Si1315  1  -0.000000  0.572478  0.588715  1
  Si  Si1316  1  0.500174  0.427160  0.561794  1
  Si  Si1317  1  0.500200  0.572589  0.561786  1
  Si  Si1318  1  -0.000000  0.427464  0.588722  1
  Si  Si1319  1  0.000000  0.646025  0.567266  1
  Si  Si1320  1  0.500075  0.353764  0.583339  1
  Si  Si1321  1  0.500306  0.646061  0.583287  1
  Si  Si1322  1  -0.000000  0.353960  0.567267  1
  Si  Si1323  1  -0.000000  0.499968  0.566598  1
  Si  Si1324  1  0.500112  0.499892  0.583782  1
  Si  Si1325  1  0.112867  0.592124  0.644415  1
  Si  Si1326  1  0.612914  0.592237  0.506048  1
  Si  Si1327  1  0.387375  0.591974  0.506054  1
  Si  Si1328  1  0.691924  0.927159  0.403071  1
  Si  Si1329  1  0.808207  0.927189  0.470553  1
  Si  Si1330  1  0.308061  0.927196  0.402977  1
  Si  Si1331  1  0.192118  0.927181  0.470705  1
  Si  Si1332  1  0.713720  0.855297  0.455384  1
  Si  Si1333  1  0.786416  0.855292  0.418240  1
  Si  Si1334  1  0.286266  0.855347  0.455427  1
  Si  Si1335  1  0.213848  0.855369  0.418266  1
  Si  Si1336  1  0.686196  0.713625  0.472235  1
  Si  Si1337  1  0.686271  0.786251  0.401413  1
  Si  Si1338  1  0.813700  0.713652  0.401500  1
  Si  Si1339  1  0.813806  0.786168  0.472134  1
  Si  Si1340  1  0.313491  0.786343  0.401370  1
  Si  Si1341  1  0.313395  0.713571  0.472277  1
  Si  Si1342  1  0.186423  0.786385  0.472359  1
  Si  Si1343  1  0.186660  0.713481  0.401284  1
  Si  Si1344  1  0.285079  0.000000  0.455610  1
  Si  Si1345  1  0.611777  0.819910  0.367625  1
  Si  Si1346  1  0.887087  0.907958  0.505928  1
  Si  Si1347  1  0.387570  0.908004  0.367638  1
  Si  Si1348  1  0.499890  0.927402  0.423388  1
  Si  Si1349  1  0.000000  0.927481  0.450270  1
  Si  Si1350  1  0.499942  0.853899  0.444862  1
  Si  Si1351  1  -0.000000  0.853967  0.428810  1
  Si  Si1352  1  0.499776  0.718762  0.450689  1
  Si  Si1353  1  0.499840  0.781225  0.422963  1
  Si  Si1354  1  -0.000000  0.718779  0.422943  1
  Si  Si1355  1  0.000000  0.781251  0.450661  1
  Si  Si1356  1  0.215134  0.000000  0.418070  1
  Si  Si1357  1  0.888199  0.679978  0.367722  1
  Si  Si1358  1  0.888050  0.820062  0.505892  1
  Si  Si1359  1  0.387758  0.820120  0.367623  1
  Si  Si1360  1  0.613123  0.907820  0.367694  1
  Si  Si1361  1  0.191992  0.927206  0.541376  1
  Si  Si1362  1  0.308148  0.927228  0.609112  1
  Si  Si1363  1  0.808234  0.927168  0.541325  1
  Si  Si1364  1  0.692023  0.927172  0.609143  1
  Si  Si1365  1  0.213675  0.855479  0.593805  1
  Si  Si1366  1  0.286542  0.855484  0.556680  1
  Si  Si1367  1  0.786273  0.855384  0.593822  1
  Si  Si1368  1  0.713891  0.855412  0.556659  1
  Si  Si1369  1  0.186572  0.713781  0.610526  1
  Si  Si1370  1  0.186700  0.786303  0.539927  1
  Si  Si1371  1  0.313708  0.713538  0.539824  1
  Si  Si1372  1  0.313739  0.786483  0.610653  1
  Si  Si1373  1  0.813710  0.786526  0.539680  1
  Si  Si1374  1  0.813842  0.713600  0.610770  1
  Si  Si1375  1  0.686524  0.786282  0.610660  1
  Si  Si1376  1  0.686669  0.713755  0.539819  1
  Si  Si1377  1  0.611647  0.680140  0.506056  1
  Si  Si1378  1  0.112068  0.819963  0.506148  1
  Si  Si1379  1  0.785040  -0.000000  0.594014  1
  Si  Si1380  1  0.387625  0.679863  0.506041  1
  Si  Si1381  1  0.215004  -0.000000  0.594002  1
  Si  Si1382  1  0.715161  0.000000  0.556470  1
  Si  Si1383  1  0.285004  0.000000  0.556465  1
  Si  Si1384  1  0.000000  0.927437  0.561745  1
  Si  Si1385  1  0.500139  0.927482  0.588744  1
  Si  Si1386  1  -0.000000  0.853973  0.583256  1
  Si  Si1387  1  0.500256  0.853998  0.567253  1
  Si  Si1388  1  0.000000  0.718812  0.589077  1
  Si  Si1389  1  0.000000  0.781270  0.561352  1
  Si  Si1390  1  0.500256  0.718748  0.561379  1
  Si  Si1391  1  0.500200  0.781240  0.589091  1
  Si  Si1392  1  0.500082  0.000000  0.566619  1
  Si  Si1393  1  0.112215  0.680024  0.644309  1
  Si  Si1394  1  0.112637  0.907859  0.506040  1
  Si  Si1395  1  0.191929  0.072817  0.747455  1
  Si  Si1396  1  0.308391  0.072814  0.679850  1
  Si  Si1397  1  0.808151  0.072818  0.747574  1
  Si  Si1398  1  0.692125  0.072842  0.679729  1
  Si  Si1399  1  0.213764  0.144579  0.695095  1
  Si  Si1400  1  0.286553  0.144597  0.732229  1
  Si  Si1401  1  0.786350  0.144605  0.695063  1
  Si  Si1402  1  0.714002  0.144602  0.732228  1
  Si  Si1403  1  0.186633  0.213704  0.749016  1
  Si  Si1404  1  0.186523  0.286206  0.678272  1
  Si  Si1405  1  0.313694  0.213494  0.678182  1
  Si  Si1406  1  0.313953  0.286365  0.749119  1
  Si  Si1407  1  0.813813  0.286375  0.678111  1
  Si  Si1408  1  0.813899  0.213495  0.749176  1
  Si  Si1409  1  0.686491  0.286157  0.749085  1
  Si  Si1410  1  0.686591  0.213657  0.678199  1
  Si  Si1411  1  0.111960  0.320127  0.644533  1
  Si  Si1412  1  0.611675  0.179941  0.644446  1
  Si  Si1413  1  0.785017  0.000000  0.694864  1
  Si  Si1414  1  0.000000  0.072655  0.727140  1
  Si  Si1415  1  0.500399  0.072679  0.700169  1
  Si  Si1416  1  0.000000  0.146116  0.705631  1
  Si  Si1417  1  0.500309  0.146126  0.721688  1
  Si  Si1418  1  -0.000000  0.218829  0.727522  1
  Si  Si1419  1  -0.000000  0.281234  0.699771  1
  Si  Si1420  1  0.500176  0.218793  0.699753  1
  Si  Si1421  1  0.500210  0.281197  0.727507  1
  Si  Si1422  1  0.000000  -0.000000  0.705043  1
  Si  Si1423  1  0.500089  0.000000  0.722231  1
  Si  Si1424  1  0.715124  -0.000000  0.732407  1
  Si  Si1425  1  0.611867  0.320080  0.782826  1
  Si  Si1426  1  0.387857  0.320325  0.782864  1
  Si  Si1427  1  0.692066  0.572774  0.747527  1
  Si  Si1428  1  0.192033  0.427110  0.679870  1
  Si  Si1429  1  0.808141  0.572753  0.679808  1
  Si  Si1430  1  0.308230  0.427123  0.747456  1
  Si  Si1431  1  0.808254  0.427096  0.679856  1
  Si  Si1432  1  0.308156  0.572741  0.747519  1
  Si  Si1433  1  0.692061  0.427094  0.747456  1
  Si  Si1434  1  0.191978  0.572770  0.679776  1
  Si  Si1435  1  0.713726  0.644540  0.695101  1
  Si  Si1436  1  0.213842  0.355289  0.732231  1
  Si  Si1437  1  0.786379  0.644574  0.732245  1
  Si  Si1438  1  0.286465  0.355288  0.695083  1
  Si  Si1439  1  0.786354  0.355229  0.732246  1
  Si  Si1440  1  0.286361  0.644536  0.695070  1
  Si  Si1441  1  0.713927  0.355246  0.695081  1
  Si  Si1442  1  0.213766  0.644528  0.732219  1
  Si  Si1443  1  0.112904  0.408032  0.644486  1
  Si  Si1444  1  0.887323  0.592089  0.644459  1
  Si  Si1445  1  0.715156  0.500002  0.694895  1
  Si  Si1446  1  0.215103  0.500020  0.732420  1
  Si  Si1447  1  0.785069  0.500027  0.732439  1
  Si  Si1448  1  0.285050  0.500049  0.694879  1
  Si  Si1449  1  0.500122  0.572521  0.727144  1
  Si  Si1450  1  -0.000000  0.427318  0.700221  1
  Si  Si1451  1  -0.000000  0.572590  0.700179  1
  Si  Si1452  1  0.500142  0.427342  0.727104  1
  Si  Si1453  1  0.500020  0.646012  0.705654  1
  Si  Si1454  1  -0.000000  0.353850  0.721703  1
  Si  Si1455  1  -0.000000  0.646078  0.721677  1
  Si  Si1456  1  0.500213  0.353868  0.705626  1
  Si  Si1457  1  0.500096  0.499970  0.705055  1
  Si  Si1458  1  -0.000000  0.499992  0.722241  1
  Si  Si1459  1  0.887301  0.408179  0.644445  1
  Si  Si1460  1  0.613011  0.407991  0.782844  1
  Si  Si1461  1  0.387416  0.408217  0.782855  1
  Si  Si1462  1  0.691924  0.927159  0.679893  1
  Si  Si1463  1  0.808207  0.927189  0.747375  1
  Si  Si1464  1  0.308061  0.927196  0.679799  1
  Si  Si1465  1  0.192118  0.927181  0.747527  1
  Si  Si1466  1  0.713720  0.855297  0.732205  1
  Si  Si1467  1  0.786416  0.855292  0.695062  1
  Si  Si1468  1  0.286266  0.855347  0.732249  1
  Si  Si1469  1  0.213848  0.855369  0.695088  1
  Si  Si1470  1  0.686196  0.713625  0.749057  1
  Si  Si1471  1  0.686271  0.786251  0.678235  1
  Si  Si1472  1  0.813700  0.713652  0.678322  1
  Si  Si1473  1  0.813806  0.786168  0.748956  1
  Si  Si1474  1  0.313491  0.786343  0.678192  1
  Si  Si1475  1  0.313395  0.713571  0.749098  1
  Si  Si1476  1  0.186423  0.786385  0.749180  1
  Si  Si1477  1  0.186660  0.713481  0.678106  1
  Si  Si1478  1  0.285079  0.000000  0.732432  1
  Si  Si1479  1  0.611777  0.819910  0.644447  1
  Si  Si1480  1  0.387570  0.908004  0.644460  1
  Si  Si1481  1  0.499890  0.927402  0.700210  1
  Si  Si1482  1  0.000000  0.927481  0.727091  1
  Si  Si1483  1  0.499942  0.853899  0.721683  1
  Si  Si1484  1  -0.000000  0.853967  0.705632  1
  Si  Si1485  1  0.499776  0.718762  0.727511  1
  Si  Si1486  1  0.499840  0.781225  0.699785  1
  Si  Si1487  1  0.000000  0.718779  0.699765  1
  Si  Si1488  1  0.000000  0.781251  0.727483  1
  Si  Si1489  1  0.215134  0.000000  0.694891  1
  Si  Si1490  1  0.888199  0.679978  0.644544  1
  Si  Si1491  1  0.387758  0.820120  0.644445  1
  Si  Si1492  1  0.613123  0.907820  0.644515  1
  H  H1493  1  0.337601  0.924575  0.063206  1
  H  H1494  1  0.663136  0.924365  0.063259  1
  H  H1495  1  0.343161  0.802490  0.063196  1
  H  H1496  1  0.655776  0.802126  0.063172  1
  H  H1497  1  0.337336  0.075175  0.095682  1
  H  H1498  1  0.662895  0.075557  0.095598  1
  H  H1499  1  0.155677  0.302127  0.095752  1
  H  H1500  1  0.342762  0.197341  0.095616  1
  H  H1501  1  0.842966  0.302469  0.095534  1
  H  H1502  1  0.656010  0.197730  0.095664  1
  H  H1503  1  0.162887  0.424679  0.095715  1
  H  H1504  1  0.837358  0.575460  0.095674  1
  H  H1505  1  0.837230  0.424698  0.095691  1
  H  H1506  1  0.162893  0.575599  0.095642  1
  H  H1507  1  0.844398  0.697752  0.095797  1
  H  H1508  1  0.157550  0.697716  0.095466  1
  H  H1509  1  0.162952  0.075254  0.777975  1
  H  H1510  1  0.837338  0.075443  0.778068  1
  H  H1511  1  0.155739  0.197691  0.777870  1
  H  H1512  1  0.843168  0.197348  0.778091  1
  H  H1513  1  0.656135  0.302273  0.810430  1
  H  H1514  1  0.342982  0.302521  0.810413  1
  H  H1515  1  0.662943  0.575627  0.778015  1
  H  H1516  1  0.337359  0.575400  0.778011  1
  H  H1517  1  0.663077  0.424552  0.810467  1
  H  H1518  1  0.337364  0.424758  0.810484  1
  H  H1519  1  0.837188  0.924725  0.777894  1
  H  H1520  1  0.162822  0.924391  0.778007  1
  H  H1521  1  0.655485  0.697889  0.777972  1
  H  H1522  1  0.844839  0.802070  0.777818  1
  H  H1523  1  0.342892  0.697593  0.778029  1
  H  H1524  1  0.156910  0.802182  0.778149  1
