# generated using pymatgen
data_Si72H2O145
_symmetry_space_group_name_H-M   'P 1'
_cell_length_a   15.90377525
_cell_length_b   18.27783093
_cell_length_c   79.67550561
_cell_angle_alpha   90.00000000
_cell_angle_beta   90.00000000
_cell_angle_gamma   90.00000000
_symmetry_Int_Tables_number   1
_chemical_formula_structural   Si72H2O145
_chemical_formula_sum   'Si288 H8 O580'
_cell_volume   23160.5950705
_cell_formula_units_Z   4
loop_
 _symmetry_equiv_pos_site_id
 _symmetry_equiv_pos_as_xyz
  1  'x, y, z'
loop_
 _atom_site_type_symbol
 _atom_site_label
 _atom_site_symmetry_multiplicity
 _atom_site_fract_x
 _atom_site_fract_y
 _atom_site_fract_z
 _atom_site_occupancy
  O  O1  1  0.174075  0.053311  0.074050  1
  O  O2  1  0.172342  0.356260  0.169919  1
  O  O3  1  0.827388  0.643783  0.170061  1
  O  O4  1  0.327538  0.856214  0.169913  1
  O  O5  1  0.672362  0.143773  0.170035  1
  O  O6  1  0.827361  0.643869  0.220205  1
  O  O7  1  0.172794  0.356132  0.220241  1
  O  O8  1  0.672523  0.143911  0.220247  1
  O  O9  1  0.327086  0.855993  0.220223  1
  O  O10  1  0.672490  0.356175  0.290996  1
  O  O11  1  0.327670  0.643829  0.291037  1
  O  O12  1  0.827415  0.856209  0.291038  1
  O  O13  1  0.172219  0.143688  0.291016  1
  O  O14  1  0.327208  0.643958  0.099128  1
  O  O15  1  0.672514  0.356092  0.099269  1
  O  O16  1  0.172674  0.143908  0.099116  1
  O  O17  1  0.827207  0.856119  0.099229  1
  O  O18  1  0.234513  0.479957  0.165805  1
  O  O19  1  0.766165  0.519942  0.165705  1
  O  O20  1  0.265779  0.980033  0.165749  1
  O  O21  1  0.734538  0.020165  0.165867  1
  O  O22  1  0.766257  0.519904  0.224570  1
  O  O23  1  0.234841  0.479825  0.224411  1
  O  O24  1  0.733281  0.019847  0.224661  1
  O  O25  1  0.265064  0.979696  0.224415  1
  O  O26  1  0.734872  0.479795  0.286915  1
  O  O27  1  0.266215  0.519951  0.286758  1
  O  O28  1  0.764694  0.979711  0.287013  1
  O  O29  1  0.233670  0.019817  0.286755  1
  O  O30  1  0.265906  0.520068  0.103464  1
  O  O31  1  0.734733  0.479836  0.103358  1
  O  O32  1  0.234390  0.020143  0.103406  1
  O  O33  1  0.765919  0.980084  0.103526  1
  O  O34  1  0.073560  0.466404  0.170177  1
  O  O35  1  0.926677  0.533917  0.170171  1
  O  O36  1  0.426582  0.966250  0.170195  1
  O  O37  1  0.573541  0.033640  0.170215  1
  O  O38  1  0.926910  0.534061  0.220088  1
  O  O39  1  0.073830  0.466404  0.220106  1
  O  O40  1  0.572857  0.034184  0.220071  1
  O  O41  1  0.426006  0.966293  0.220080  1
  O  O42  1  0.573816  0.466476  0.291226  1
  O  O43  1  0.426913  0.533976  0.291246  1
  O  O44  1  0.925874  0.966643  0.291215  1
  O  O45  1  0.072901  0.033879  0.291219  1
  O  O46  1  0.426664  0.534011  0.099039  1
  O  O47  1  0.573626  0.466343  0.099033  1
  O  O48  1  0.073500  0.033838  0.099054  1
  O  O49  1  0.926650  0.966069  0.099075  1
  O  O50  1  0.174319  0.446316  0.195117  1
  O  O51  1  0.825745  0.553167  0.195145  1
  O  O52  1  0.325474  0.946267  0.195099  1
  O  O53  1  0.674295  0.053403  0.195194  1
  O  O54  1  0.674325  0.446105  0.074096  1
  O  O55  1  0.325731  0.553371  0.074072  1
  O  O56  1  0.825676  0.946161  0.074159  1
  O  O57  1  0.174075  0.053311  0.316144  1
  O  O58  1  0.959884  0.440950  0.147804  1
  O  O59  1  0.040530  0.559196  0.147793  1
  O  O60  1  0.540171  0.941028  0.147799  1
  O  O61  1  0.459611  0.059299  0.147863  1
  O  O62  1  0.040424  0.559095  0.242536  1
  O  O63  1  0.959928  0.440991  0.242435  1
  O  O64  1  0.459391  0.058985  0.242525  1
  O  O65  1  0.540129  0.940983  0.242380  1
  O  O66  1  0.459848  0.440914  0.268917  1
  O  O67  1  0.540495  0.559154  0.268818  1
  O  O68  1  0.039929  0.940821  0.268910  1
  O  O69  1  0.959547  0.059166  0.268764  1
  O  O70  1  0.540485  0.559105  0.121424  1
  O  O71  1  0.459938  0.441032  0.121408  1
  O  O72  1  0.959591  0.059207  0.121413  1
  O  O73  1  0.040195  0.941132  0.121481  1
  O  O74  1  0.129986  0.558539  0.121047  1
  O  O75  1  0.870239  0.441903  0.121114  1
  O  O76  1  0.369763  0.058424  0.121161  1
  O  O77  1  0.630164  0.941689  0.121135  1
  O  O78  1  0.870875  0.442108  0.269228  1
  O  O79  1  0.129165  0.558082  0.269407  1
  O  O80  1  0.629445  0.942066  0.269123  1
  O  O81  1  0.370631  0.058059  0.269385  1
  O  O82  1  0.630184  0.558462  0.242093  1
  O  O83  1  0.369838  0.441718  0.242272  1
  O  O84  1  0.870119  0.058431  0.241987  1
  O  O85  1  0.129938  0.941701  0.242253  1
  O  O86  1  0.370681  0.442182  0.148182  1
  O  O87  1  0.629553  0.558263  0.148255  1
  O  O88  1  0.129081  0.942060  0.148295  1
  O  O89  1  0.870858  0.058055  0.148267  1
  O  O90  1  0.987080  0.628387  0.122579  1
  O  O91  1  0.012346  0.371234  0.122534  1
  O  O92  1  0.512338  0.128656  0.122594  1
  O  O93  1  0.487614  0.871401  0.122532  1
  O  O94  1  0.013171  0.371639  0.267663  1
  O  O95  1  0.986673  0.628401  0.267718  1
  O  O96  1  0.486899  0.871815  0.267624  1
  O  O97  1  0.513088  0.128418  0.267711  1
  O  O98  1  0.487502  0.628624  0.243584  1
  O  O99  1  0.512337  0.371444  0.243633  1
  O  O100  1  0.012559  0.128796  0.243544  1
  O  O101  1  0.987408  0.871456  0.243630  1
  O  O102  1  0.512752  0.371403  0.146663  1
  O  O103  1  0.486680  0.628214  0.146620  1
  O  O104  1  0.986666  0.871675  0.146670  1
  O  O105  1  0.013282  0.128385  0.146611  1
  O  O106  1  0.114605  0.679327  0.138074  1
  O  O107  1  0.885081  0.320971  0.138183  1
  O  O108  1  0.385080  0.179322  0.138133  1
  O  O109  1  0.614690  0.820946  0.138192  1
  O  O110  1  0.885557  0.321121  0.252128  1
  O  O111  1  0.114434  0.678979  0.252260  1
  O  O112  1  0.614411  0.821074  0.252094  1
  O  O113  1  0.385463  0.178955  0.252235  1
  O  O114  1  0.614792  0.679236  0.259142  1
  O  O115  1  0.385216  0.320841  0.259266  1
  O  O116  1  0.885168  0.179205  0.259102  1
  O  O117  1  0.114675  0.820838  0.259249  1
  O  O118  1  0.385378  0.321208  0.131062  1
  O  O119  1  0.614314  0.679082  0.131173  1
  O  O120  1  0.114306  0.821186  0.131123  1
  O  O121  1  0.885456  0.179088  0.131181  1
  O  O122  1  0.269822  0.225943  0.119742  1
  O  O123  1  0.729965  0.774192  0.119871  1
  O  O124  1  0.230031  0.726038  0.119747  1
  O  O125  1  0.769696  0.274184  0.119892  1
  O  O126  1  0.730124  0.774751  0.270353  1
  O  O127  1  0.269614  0.225374  0.270425  1
  O  O128  1  0.769768  0.274658  0.270344  1
  O  O129  1  0.230360  0.725465  0.270429  1
  O  O130  1  0.769732  0.226014  0.240822  1
  O  O131  1  0.229989  0.774127  0.240900  1
  O  O132  1  0.730164  0.725905  0.240820  1
  O  O133  1  0.269980  0.274203  0.240898  1
  O  O134  1  0.230205  0.774692  0.149272  1
  O  O135  1  0.769584  0.225447  0.149405  1
  O  O136  1  0.269639  0.274789  0.149272  1
  O  O137  1  0.730091  0.725427  0.149416  1
  O  O138  1  0.160031  0.422484  0.115242  1
  O  O139  1  0.838456  0.577858  0.115626  1
  O  O140  1  0.339816  0.922467  0.115284  1
  O  O141  1  0.660205  0.077768  0.115351  1
  O  O142  1  0.838014  0.578035  0.274617  1
  O  O143  1  0.161685  0.422020  0.274728  1
  O  O144  1  0.661477  0.077959  0.274707  1
  O  O145  1  0.338227  0.921997  0.274677  1
  O  O146  1  0.660205  0.422385  0.236341  1
  O  O147  1  0.339525  0.577664  0.236450  1
  O  O148  1  0.839280  0.922313  0.236425  1
  O  O149  1  0.160389  0.077644  0.236401  1
  O  O150  1  0.337853  0.578129  0.153516  1
  O  O151  1  0.660646  0.422199  0.153905  1
  O  O152  1  0.161986  0.078107  0.153555  1
  O  O153  1  0.838040  0.922116  0.153620  1
  O  O154  1  0.249376  0.498208  0.134586  1
  O  O155  1  0.748610  0.499015  0.134514  1
  O  O156  1  0.249645  0.998121  0.134520  1
  O  O157  1  0.749688  0.001978  0.134650  1
  O  O158  1  0.749269  0.498221  0.255713  1
  O  O159  1  0.248869  0.501377  0.255527  1
  O  O160  1  0.751584  -0.000000  0.255866  1
  O  O161  1  0.250762  0.001458  0.255528  1
  O  O162  1  0.130336  0.278522  0.112124  1
  O  O163  1  0.869312  0.721445  0.112288  1
  O  O164  1  0.369597  0.778565  0.112135  1
  O  O165  1  0.630158  0.221732  0.112298  1
  O  O166  1  0.869175  0.721706  0.277946  1
  O  O167  1  0.130445  0.278276  0.277958  1
  O  O168  1  0.630590  0.221745  0.277941  1
  O  O169  1  0.369626  0.778368  0.277941  1
  O  O170  1  0.630132  0.278477  0.233249  1
  O  O171  1  0.369459  0.721503  0.233263  1
  O  O172  1  0.869613  0.778523  0.233245  1
  O  O173  1  0.130598  0.221598  0.233245  1
  O  O174  1  0.369353  0.721747  0.156824  1
  O  O175  1  0.630291  0.278211  0.156991  1
  O  O176  1  0.130576  0.221787  0.156830  1
  O  O177  1  0.869178  0.778504  0.156989  1
  O  O178  1  0.138117  0.338432  0.139857  1
  O  O179  1  0.861815  0.661859  0.140074  1
  O  O180  1  0.361832  0.838399  0.139869  1
  O  O181  1  0.638017  0.161652  0.139991  1
  O  O182  1  0.861596  0.662009  0.250179  1
  O  O183  1  0.138506  0.338092  0.250222  1
  O  O184  1  0.638349  0.161952  0.250217  1
  O  O185  1  0.361542  0.838065  0.250194  1
  O  O186  1  0.638134  0.338379  0.260960  1
  O  O187  1  0.361923  0.661708  0.261006  1
  O  O188  1  0.861774  0.838333  0.260998  1
  O  O189  1  0.138109  0.161688  0.260976  1
  O  O190  1  0.361578  0.662065  0.129077  1
  O  O191  1  0.638370  0.338229  0.129294  1
  O  O192  1  0.138386  0.162028  0.129083  1
  O  O193  1  0.861449  0.838029  0.129198  1
  O  O194  1  0.172342  0.356260  0.412013  1
  O  O195  1  0.827388  0.643783  0.412155  1
  O  O196  1  0.327538  0.856214  0.412006  1
  O  O197  1  0.672362  0.143773  0.412129  1
  O  O198  1  0.827361  0.643869  0.462299  1
  O  O199  1  0.172794  0.356132  0.462335  1
  O  O200  1  0.672523  0.143911  0.462341  1
  O  O201  1  0.327086  0.855993  0.462317  1
  O  O202  1  0.672490  0.356175  0.533090  1
  O  O203  1  0.327670  0.643829  0.533131  1
  O  O204  1  0.827415  0.856209  0.533132  1
  O  O205  1  0.172219  0.143688  0.533110  1
  O  O206  1  0.327208  0.643958  0.341222  1
  O  O207  1  0.672514  0.356092  0.341363  1
  O  O208  1  0.172674  0.143908  0.341210  1
  O  O209  1  0.827207  0.856119  0.341323  1
  O  O210  1  0.234513  0.479957  0.407899  1
  O  O211  1  0.766165  0.519942  0.407799  1
  O  O212  1  0.265779  0.980033  0.407843  1
  O  O213  1  0.734538  0.020165  0.407961  1
  O  O214  1  0.766257  0.519904  0.466663  1
  O  O215  1  0.234841  0.479825  0.466505  1
  O  O216  1  0.733281  0.019847  0.466755  1
  O  O217  1  0.265064  0.979696  0.466509  1
  O  O218  1  0.734872  0.479795  0.529009  1
  O  O219  1  0.266215  0.519951  0.528852  1
  O  O220  1  0.764694  0.979711  0.529107  1
  O  O221  1  0.233670  0.019817  0.528849  1
  O  O222  1  0.265906  0.520068  0.345557  1
  O  O223  1  0.734733  0.479836  0.345452  1
  O  O224  1  0.234390  0.020143  0.345500  1
  O  O225  1  0.765919  0.980084  0.345619  1
  O  O226  1  0.073560  0.466404  0.412271  1
  O  O227  1  0.926677  0.533917  0.412265  1
  O  O228  1  0.426582  0.966250  0.412289  1
  O  O229  1  0.573541  0.033640  0.412309  1
  O  O230  1  0.926910  0.534061  0.462182  1
  O  O231  1  0.073830  0.466404  0.462200  1
  O  O232  1  0.572857  0.034184  0.462164  1
  O  O233  1  0.426006  0.966293  0.462174  1
  O  O234  1  0.573816  0.466476  0.533320  1
  O  O235  1  0.426913  0.533976  0.533340  1
  O  O236  1  0.925874  0.966643  0.533309  1
  O  O237  1  0.072901  0.033879  0.533313  1
  O  O238  1  0.426664  0.534011  0.341132  1
  O  O239  1  0.573626  0.466343  0.341127  1
  O  O240  1  0.073500  0.033838  0.341148  1
  O  O241  1  0.926650  0.966069  0.341169  1
  O  O242  1  0.174319  0.446316  0.437211  1
  O  O243  1  0.825745  0.553167  0.437239  1
  O  O244  1  0.325474  0.946267  0.437193  1
  O  O245  1  0.674295  0.053403  0.437288  1
  O  O246  1  0.674325  0.446105  0.316190  1
  O  O247  1  0.325731  0.553371  0.316166  1
  O  O248  1  0.825676  0.946161  0.316253  1
  O  O249  1  0.174075  0.053311  0.558238  1
  O  O250  1  0.959884  0.440950  0.389898  1
  O  O251  1  0.040530  0.559196  0.389887  1
  O  O252  1  0.540171  0.941028  0.389893  1
  O  O253  1  0.459611  0.059299  0.389957  1
  O  O254  1  0.040424  0.559095  0.484630  1
  O  O255  1  0.959928  0.440991  0.484529  1
  O  O256  1  0.459391  0.058985  0.484619  1
  O  O257  1  0.540129  0.940983  0.484474  1
  O  O258  1  0.459848  0.440914  0.511011  1
  O  O259  1  0.540495  0.559154  0.510911  1
  O  O260  1  0.039929  0.940821  0.511004  1
  O  O261  1  0.959547  0.059166  0.510858  1
  O  O262  1  0.540485  0.559105  0.363518  1
  O  O263  1  0.459938  0.441032  0.363501  1
  O  O264  1  0.959591  0.059207  0.363507  1
  O  O265  1  0.040195  0.941132  0.363575  1
  O  O266  1  0.129986  0.558539  0.363141  1
  O  O267  1  0.870239  0.441903  0.363208  1
  O  O268  1  0.369763  0.058424  0.363255  1
  O  O269  1  0.630164  0.941689  0.363229  1
  O  O270  1  0.870875  0.442108  0.511322  1
  O  O271  1  0.129165  0.558082  0.511501  1
  O  O272  1  0.629445  0.942066  0.511217  1
  O  O273  1  0.370631  0.058059  0.511478  1
  O  O274  1  0.630184  0.558462  0.484187  1
  O  O275  1  0.369838  0.441718  0.484366  1
  O  O276  1  0.870119  0.058431  0.484081  1
  O  O277  1  0.129938  0.941701  0.484347  1
  O  O278  1  0.370681  0.442182  0.390276  1
  O  O279  1  0.629553  0.558263  0.390349  1
  O  O280  1  0.129081  0.942060  0.390389  1
  O  O281  1  0.870858  0.058055  0.390361  1
  O  O282  1  0.987080  0.628387  0.364673  1
  O  O283  1  0.012346  0.371234  0.364627  1
  O  O284  1  0.512338  0.128656  0.364687  1
  O  O285  1  0.487614  0.871401  0.364626  1
  O  O286  1  0.013171  0.371639  0.509756  1
  O  O287  1  0.986673  0.628401  0.509812  1
  O  O288  1  0.486899  0.871815  0.509718  1
  O  O289  1  0.513088  0.128418  0.509805  1
  O  O290  1  0.487502  0.628624  0.485678  1
  O  O291  1  0.512337  0.371444  0.485727  1
  O  O292  1  0.012559  0.128796  0.485638  1
  O  O293  1  0.987408  0.871456  0.485724  1
  O  O294  1  0.512752  0.371403  0.388756  1
  O  O295  1  0.486680  0.628214  0.388714  1
  O  O296  1  0.986666  0.871675  0.388764  1
  O  O297  1  0.013282  0.128385  0.388705  1
  O  O298  1  0.114605  0.679327  0.380167  1
  O  O299  1  0.885081  0.320971  0.380277  1
  O  O300  1  0.385080  0.179322  0.380227  1
  O  O301  1  0.614690  0.820946  0.380286  1
  O  O302  1  0.885557  0.321121  0.494222  1
  O  O303  1  0.114434  0.678979  0.494354  1
  O  O304  1  0.614411  0.821074  0.494188  1
  O  O305  1  0.385463  0.178955  0.494329  1
  O  O306  1  0.614792  0.679236  0.501235  1
  O  O307  1  0.385216  0.320841  0.501360  1
  O  O308  1  0.885168  0.179205  0.501196  1
  O  O309  1  0.114675  0.820838  0.501343  1
  O  O310  1  0.385378  0.321208  0.373155  1
  O  O311  1  0.614314  0.679082  0.373267  1
  O  O312  1  0.114306  0.821186  0.373217  1
  O  O313  1  0.885456  0.179088  0.373275  1
  O  O314  1  0.269822  0.225943  0.361836  1
  O  O315  1  0.729965  0.774192  0.361965  1
  O  O316  1  0.230031  0.726038  0.361840  1
  O  O317  1  0.769696  0.274184  0.361985  1
  O  O318  1  0.730124  0.774751  0.512447  1
  O  O319  1  0.269614  0.225374  0.512519  1
  O  O320  1  0.769768  0.274658  0.512438  1
  O  O321  1  0.230360  0.725465  0.512523  1
  O  O322  1  0.769732  0.226014  0.482916  1
  O  O323  1  0.229989  0.774127  0.482994  1
  O  O324  1  0.730164  0.725905  0.482914  1
  O  O325  1  0.269980  0.274203  0.482992  1
  O  O326  1  0.230205  0.774692  0.391366  1
  O  O327  1  0.769584  0.225447  0.391499  1
  O  O328  1  0.269639  0.274789  0.391366  1
  O  O329  1  0.730091  0.725427  0.391510  1
  O  O330  1  0.160031  0.422484  0.357336  1
  O  O331  1  0.838456  0.577858  0.357720  1
  O  O332  1  0.339816  0.922467  0.357377  1
  O  O333  1  0.660205  0.077768  0.357445  1
  O  O334  1  0.838014  0.578035  0.516711  1
  O  O335  1  0.161685  0.422020  0.516822  1
  O  O336  1  0.661477  0.077959  0.516801  1
  O  O337  1  0.338227  0.921997  0.516771  1
  O  O338  1  0.660205  0.422385  0.478435  1
  O  O339  1  0.339525  0.577664  0.478544  1
  O  O340  1  0.839280  0.922313  0.478519  1
  O  O341  1  0.160389  0.077644  0.478495  1
  O  O342  1  0.337853  0.578129  0.395610  1
  O  O343  1  0.660646  0.422199  0.395999  1
  O  O344  1  0.161986  0.078107  0.395649  1
  O  O345  1  0.838040  0.922116  0.395714  1
  O  O346  1  0.249376  0.498208  0.376680  1
  O  O347  1  0.748610  0.499015  0.376608  1
  O  O348  1  0.249645  0.998121  0.376614  1
  O  O349  1  0.749688  0.001978  0.376744  1
  O  O350  1  0.749269  0.498221  0.497807  1
  O  O351  1  0.248869  0.501377  0.497621  1
  O  O352  1  0.751584  -0.000000  0.497960  1
  O  O353  1  0.250762  0.001458  0.497622  1
  O  O354  1  0.130336  0.278522  0.354218  1
  O  O355  1  0.869312  0.721445  0.354382  1
  O  O356  1  0.369597  0.778565  0.354229  1
  O  O357  1  0.630158  0.221732  0.354392  1
  O  O358  1  0.869175  0.721706  0.520040  1
  O  O359  1  0.130445  0.278276  0.520051  1
  O  O360  1  0.630590  0.221745  0.520035  1
  O  O361  1  0.369626  0.778368  0.520035  1
  O  O362  1  0.630132  0.278477  0.475343  1
  O  O363  1  0.369459  0.721503  0.475357  1
  O  O364  1  0.869613  0.778523  0.475339  1
  O  O365  1  0.130598  0.221598  0.475339  1
  O  O366  1  0.369353  0.721747  0.398918  1
  O  O367  1  0.630291  0.278211  0.399085  1
  O  O368  1  0.130576  0.221787  0.398924  1
  O  O369  1  0.869178  0.778504  0.399082  1
  O  O370  1  0.138117  0.338432  0.381951  1
  O  O371  1  0.861815  0.661859  0.382168  1
  O  O372  1  0.361832  0.838399  0.381963  1
  O  O373  1  0.638017  0.161652  0.382085  1
  O  O374  1  0.861596  0.662009  0.492273  1
  O  O375  1  0.138506  0.338092  0.492316  1
  O  O376  1  0.638349  0.161952  0.492311  1
  O  O377  1  0.361542  0.838065  0.492287  1
  O  O378  1  0.638134  0.338379  0.503054  1
  O  O379  1  0.361923  0.661708  0.503100  1
  O  O380  1  0.861774  0.838333  0.503092  1
  O  O381  1  0.138109  0.161688  0.503070  1
  O  O382  1  0.361578  0.662065  0.371171  1
  O  O383  1  0.638370  0.338229  0.371388  1
  O  O384  1  0.138386  0.162028  0.371177  1
  O  O385  1  0.861449  0.838029  0.371292  1
  O  O386  1  0.172342  0.356260  0.654107  1
  O  O387  1  0.827388  0.643783  0.654249  1
  O  O388  1  0.327538  0.856214  0.654100  1
  O  O389  1  0.672362  0.143773  0.654223  1
  O  O390  1  0.827361  0.643869  0.704393  1
  O  O391  1  0.172794  0.356132  0.704429  1
  O  O392  1  0.672523  0.143911  0.704435  1
  O  O393  1  0.327086  0.855993  0.704411  1
  O  O394  1  0.672490  0.356175  0.775184  1
  O  O395  1  0.327670  0.643829  0.775225  1
  O  O396  1  0.827415  0.856209  0.775226  1
  O  O397  1  0.172219  0.143688  0.775203  1
  O  O398  1  0.327208  0.643958  0.583315  1
  O  O399  1  0.672514  0.356092  0.583457  1
  O  O400  1  0.172674  0.143908  0.583304  1
  O  O401  1  0.827207  0.856119  0.583416  1
  O  O402  1  0.234513  0.479957  0.649993  1
  O  O403  1  0.766165  0.519942  0.649893  1
  O  O404  1  0.265779  0.980033  0.649937  1
  O  O405  1  0.734538  0.020165  0.650054  1
  O  O406  1  0.766257  0.519904  0.708757  1
  O  O407  1  0.234841  0.479825  0.708599  1
  O  O408  1  0.733281  0.019847  0.708848  1
  O  O409  1  0.265064  0.979696  0.708603  1
  O  O410  1  0.734872  0.479795  0.771103  1
  O  O411  1  0.266215  0.519951  0.770946  1
  O  O412  1  0.764694  0.979711  0.771201  1
  O  O413  1  0.233670  0.019817  0.770943  1
  O  O414  1  0.265906  0.520068  0.587651  1
  O  O415  1  0.734733  0.479836  0.587546  1
  O  O416  1  0.234390  0.020143  0.587594  1
  O  O417  1  0.765919  0.980084  0.587713  1
  O  O418  1  0.073560  0.466404  0.654365  1
  O  O419  1  0.926677  0.533917  0.654359  1
  O  O420  1  0.426582  0.966250  0.654383  1
  O  O421  1  0.573541  0.033640  0.654402  1
  O  O422  1  0.926910  0.534061  0.704276  1
  O  O423  1  0.073830  0.466404  0.704294  1
  O  O424  1  0.572857  0.034184  0.704258  1
  O  O425  1  0.426006  0.966293  0.704268  1
  O  O426  1  0.573816  0.466476  0.775414  1
  O  O427  1  0.426913  0.533976  0.775433  1
  O  O428  1  0.925874  0.966643  0.775402  1
  O  O429  1  0.072901  0.033879  0.775407  1
  O  O430  1  0.426664  0.534011  0.583226  1
  O  O431  1  0.573626  0.466343  0.583221  1
  O  O432  1  0.073500  0.033838  0.583242  1
  O  O433  1  0.926650  0.966069  0.583263  1
  O  O434  1  0.174319  0.446316  0.679305  1
  O  O435  1  0.825745  0.553167  0.679333  1
  O  O436  1  0.325474  0.946267  0.679287  1
  O  O437  1  0.674295  0.053403  0.679382  1
  O  O438  1  0.674325  0.446105  0.558284  1
  O  O439  1  0.325731  0.553371  0.558259  1
  O  O440  1  0.825676  0.946161  0.558347  1
  O  O441  1  0.174075  0.053311  0.800332  1
  O  O442  1  0.959884  0.440950  0.631992  1
  O  O443  1  0.040530  0.559196  0.631981  1
  O  O444  1  0.540171  0.941028  0.631987  1
  O  O445  1  0.459611  0.059299  0.632051  1
  O  O446  1  0.040424  0.559095  0.726724  1
  O  O447  1  0.959928  0.440991  0.726623  1
  O  O448  1  0.459391  0.058985  0.726713  1
  O  O449  1  0.540129  0.940983  0.726568  1
  O  O450  1  0.459848  0.440914  0.753105  1
  O  O451  1  0.540495  0.559154  0.753005  1
  O  O452  1  0.039929  0.940821  0.753098  1
  O  O453  1  0.959547  0.059166  0.752952  1
  O  O454  1  0.540485  0.559105  0.605612  1
  O  O455  1  0.459938  0.441032  0.605595  1
  O  O456  1  0.959591  0.059207  0.605600  1
  O  O457  1  0.040195  0.941132  0.605669  1
  O  O458  1  0.129986  0.558539  0.605235  1
  O  O459  1  0.870239  0.441903  0.605302  1
  O  O460  1  0.369763  0.058424  0.605349  1
  O  O461  1  0.630164  0.941689  0.605323  1
  O  O462  1  0.870875  0.442108  0.753416  1
  O  O463  1  0.129165  0.558082  0.753595  1
  O  O464  1  0.629445  0.942066  0.753311  1
  O  O465  1  0.370631  0.058059  0.753572  1
  O  O466  1  0.630184  0.558462  0.726281  1
  O  O467  1  0.369838  0.441718  0.726460  1
  O  O468  1  0.870119  0.058431  0.726175  1
  O  O469  1  0.129938  0.941701  0.726440  1
  O  O470  1  0.370681  0.442182  0.632370  1
  O  O471  1  0.629553  0.558263  0.632443  1
  O  O472  1  0.129081  0.942060  0.632483  1
  O  O473  1  0.870858  0.058055  0.632454  1
  O  O474  1  0.987080  0.628387  0.606767  1
  O  O475  1  0.012346  0.371234  0.606721  1
  O  O476  1  0.512338  0.128656  0.606781  1
  O  O477  1  0.487614  0.871401  0.606720  1
  O  O478  1  0.013171  0.371639  0.751850  1
  O  O479  1  0.986673  0.628401  0.751906  1
  O  O480  1  0.486899  0.871815  0.751812  1
  O  O481  1  0.513088  0.128418  0.751899  1
  O  O482  1  0.487502  0.628624  0.727772  1
  O  O483  1  0.512337  0.371444  0.727821  1
  O  O484  1  0.012559  0.128796  0.727732  1
  O  O485  1  0.987408  0.871456  0.727818  1
  O  O486  1  0.512752  0.371403  0.630850  1
  O  O487  1  0.486680  0.628214  0.630808  1
  O  O488  1  0.986666  0.871675  0.630858  1
  O  O489  1  0.013282  0.128385  0.630799  1
  O  O490  1  0.114605  0.679327  0.622261  1
  O  O491  1  0.885081  0.320971  0.622371  1
  O  O492  1  0.385080  0.179322  0.622321  1
  O  O493  1  0.614690  0.820946  0.622380  1
  O  O494  1  0.885557  0.321121  0.736316  1
  O  O495  1  0.114434  0.678979  0.736448  1
  O  O496  1  0.614411  0.821074  0.736282  1
  O  O497  1  0.385463  0.178955  0.736423  1
  O  O498  1  0.614792  0.679236  0.743329  1
  O  O499  1  0.385216  0.320841  0.743454  1
  O  O500  1  0.885168  0.179205  0.743290  1
  O  O501  1  0.114675  0.820838  0.743437  1
  O  O502  1  0.385378  0.321208  0.615249  1
  O  O503  1  0.614314  0.679082  0.615361  1
  O  O504  1  0.114306  0.821186  0.615311  1
  O  O505  1  0.885456  0.179088  0.615368  1
  O  O506  1  0.269822  0.225943  0.603930  1
  O  O507  1  0.729965  0.774192  0.604059  1
  O  O508  1  0.230031  0.726038  0.603934  1
  O  O509  1  0.769696  0.274184  0.604079  1
  O  O510  1  0.730124  0.774751  0.754541  1
  O  O511  1  0.269614  0.225374  0.754613  1
  O  O512  1  0.769768  0.274658  0.754532  1
  O  O513  1  0.230360  0.725465  0.754617  1
  O  O514  1  0.769732  0.226014  0.725010  1
  O  O515  1  0.229989  0.774127  0.725088  1
  O  O516  1  0.730164  0.725905  0.725007  1
  O  O517  1  0.269980  0.274203  0.725086  1
  O  O518  1  0.230205  0.774692  0.633460  1
  O  O519  1  0.769584  0.225447  0.633593  1
  O  O520  1  0.269639  0.274789  0.633460  1
  O  O521  1  0.730091  0.725427  0.633604  1
  O  O522  1  0.160031  0.422484  0.599430  1
  O  O523  1  0.838456  0.577858  0.599814  1
  O  O524  1  0.339816  0.922467  0.599471  1
  O  O525  1  0.660205  0.077768  0.599539  1
  O  O526  1  0.838014  0.578035  0.758805  1
  O  O527  1  0.161685  0.422020  0.758916  1
  O  O528  1  0.661477  0.077959  0.758895  1
  O  O529  1  0.338227  0.921997  0.758865  1
  O  O530  1  0.660205  0.422385  0.720529  1
  O  O531  1  0.339525  0.577664  0.720637  1
  O  O532  1  0.839280  0.922313  0.720613  1
  O  O533  1  0.160389  0.077644  0.720589  1
  O  O534  1  0.337853  0.578129  0.637704  1
  O  O535  1  0.660646  0.422199  0.638093  1
  O  O536  1  0.161986  0.078107  0.637743  1
  O  O537  1  0.838040  0.922116  0.637808  1
  O  O538  1  0.249376  0.498208  0.618774  1
  O  O539  1  0.748610  0.499015  0.618702  1
  O  O540  1  0.249645  0.998121  0.618708  1
  O  O541  1  0.749688  0.001978  0.618838  1
  O  O542  1  0.749269  0.498221  0.739901  1
  O  O543  1  0.248869  0.501377  0.739715  1
  O  O544  1  0.751584  -0.000000  0.740054  1
  O  O545  1  0.250762  0.001458  0.739716  1
  O  O546  1  0.130336  0.278522  0.596312  1
  O  O547  1  0.869312  0.721445  0.596476  1
  O  O548  1  0.369597  0.778565  0.596323  1
  O  O549  1  0.630158  0.221732  0.596486  1
  O  O550  1  0.869175  0.721706  0.762134  1
  O  O551  1  0.130445  0.278276  0.762145  1
  O  O552  1  0.630590  0.221745  0.762129  1
  O  O553  1  0.369626  0.778368  0.762128  1
  O  O554  1  0.630132  0.278477  0.717436  1
  O  O555  1  0.369459  0.721503  0.717451  1
  O  O556  1  0.869613  0.778523  0.717433  1
  O  O557  1  0.130598  0.221598  0.717433  1
  O  O558  1  0.369353  0.721747  0.641012  1
  O  O559  1  0.630291  0.278211  0.641179  1
  O  O560  1  0.130576  0.221787  0.641018  1
  O  O561  1  0.869178  0.778504  0.641176  1
  O  O562  1  0.138117  0.338432  0.624045  1
  O  O563  1  0.861815  0.661859  0.624262  1
  O  O564  1  0.361832  0.838399  0.624057  1
  O  O565  1  0.638017  0.161652  0.624179  1
  O  O566  1  0.861596  0.662009  0.734367  1
  O  O567  1  0.138506  0.338092  0.734410  1
  O  O568  1  0.638349  0.161952  0.734405  1
  O  O569  1  0.361542  0.838065  0.734381  1
  O  O570  1  0.638134  0.338379  0.745148  1
  O  O571  1  0.361923  0.661708  0.745194  1
  O  O572  1  0.861774  0.838333  0.745186  1
  O  O573  1  0.138109  0.161688  0.745164  1
  O  O574  1  0.361578  0.662065  0.613265  1
  O  O575  1  0.638370  0.338229  0.613482  1
  O  O576  1  0.138386  0.162028  0.613271  1
  O  O577  1  0.861449  0.838029  0.613386  1
  O  O578  1  0.674325  0.446105  0.800378  1
  O  O579  1  0.325731  0.553371  0.800353  1
  O  O580  1  0.825676  0.946161  0.800441  1
  Si  Si581  1  0.163109  0.438834  0.175719  1
  Si  Si582  1  0.837029  0.561069  0.175746  1
  Si  Si583  1  0.336929  0.938788  0.175704  1
  Si  Si584  1  0.663075  0.061134  0.175793  1
  Si  Si585  1  0.837134  0.561134  0.214542  1
  Si  Si586  1  0.163306  0.438796  0.214519  1
  Si  Si587  1  0.662715  0.061198  0.214583  1
  Si  Si588  1  0.336519  0.938674  0.214502  1
  Si  Si589  1  0.663267  0.438756  0.296790  1
  Si  Si590  1  0.337169  0.561172  0.296770  1
  Si  Si591  1  0.836569  0.938793  0.296841  1
  Si  Si592  1  0.162648  0.061047  0.296749  1
  Si  Si593  1  0.336974  0.561215  0.093471  1
  Si  Si594  1  0.663164  0.438690  0.093494  1
  Si  Si595  1  0.163074  0.061162  0.093452  1
  Si  Si596  1  0.836943  0.938791  0.093550  1
  Si  Si597  1  0.069210  0.606206  0.132336  1
  Si  Si598  1  0.930719  0.393905  0.132390  1
  Si  Si599  1  0.430527  0.106196  0.132418  1
  Si  Si600  1  0.569296  0.893973  0.132388  1
  Si  Si601  1  0.931180  0.394084  0.257903  1
  Si  Si602  1  0.068877  0.605989  0.258030  1
  Si  Si603  1  0.568915  0.894121  0.257849  1
  Si  Si604  1  0.430960  0.105939  0.258010  1
  Si  Si605  1  0.569399  0.606155  0.253378  1
  Si  Si606  1  0.430655  0.393910  0.253501  1
  Si  Si607  1  0.930684  0.106200  0.253322  1
  Si  Si608  1  0.069160  0.893871  0.253487  1
  Si  Si609  1  0.431000  0.394132  0.136862  1
  Si  Si610  1  0.568937  0.605974  0.136921  1
  Si  Si611  1  0.068750  0.894114  0.136943  1
  Si  Si612  1  0.931078  0.106062  0.136911  1
  Si  Si613  1  0.201041  0.500220  0.117618  1
  Si  Si614  1  0.798530  0.499663  0.117726  1
  Si  Si615  1  0.298781  0.000000  0.117645  1
  Si  Si616  1  0.701192  0.000000  0.117701  1
  Si  Si617  1  0.798718  0.499580  0.272557  1
  Si  Si618  1  0.201318  0.500355  0.272590  1
  Si  Si619  1  0.701200  0.000000  0.272599  1
  Si  Si620  1  0.298511  -0.000000  0.272569  1
  Si  Si621  1  0.701271  0.500112  0.238705  1
  Si  Si622  1  0.298763  0.499823  0.238738  1
  Si  Si623  1  0.798628  0.000000  0.238744  1
  Si  Si624  1  0.201056  -0.000000  0.238719  1
  Si  Si625  1  0.298494  0.499686  0.151469  1
  Si  Si626  1  0.701091  0.500191  0.151580  1
  Si  Si627  1  0.201331  0.000000  0.151496  1
  Si  Si628  1  0.798660  0.000000  0.151550  1
  Si  Si629  1  0.108764  0.353619  0.121240  1
  Si  Si630  1  0.890681  0.646393  0.121448  1
  Si  Si631  1  0.391209  0.853644  0.121258  1
  Si  Si632  1  0.608738  0.146501  0.121368  1
  Si  Si633  1  0.890321  0.646549  0.268812  1
  Si  Si634  1  0.109504  0.353523  0.268843  1
  Si  Si635  1  0.609420  0.146526  0.268843  1
  Si  Si636  1  0.390576  0.853577  0.268806  1
  Si  Si637  1  0.608727  0.353647  0.242349  1
  Si  Si638  1  0.391086  0.646431  0.242385  1
  Si  Si639  1  0.890995  0.853631  0.242381  1
  Si  Si640  1  0.108985  0.146486  0.242347  1
  Si  Si641  1  0.390353  0.646527  0.147703  1
  Si  Si642  1  0.609101  0.353475  0.147912  1
  Si  Si643  1  0.109624  0.146550  0.147715  1
  Si  Si644  1  0.890317  0.853586  0.147819  1
  Si  Si645  1  0.178673  0.297785  0.155400  1
  Si  Si646  1  0.821030  0.702510  0.155587  1
  Si  Si647  1  0.321183  0.797719  0.155396  1
  Si  Si648  1  0.678619  0.202327  0.155526  1
  Si  Si649  1  0.821045  0.702726  0.234653  1
  Si  Si650  1  0.179144  0.297376  0.234703  1
  Si  Si651  1  0.678823  0.202757  0.234689  1
  Si  Si652  1  0.320833  0.797263  0.234696  1
  Si  Si653  1  0.678811  0.297677  0.276483  1
  Si  Si654  1  0.321363  0.702427  0.276537  1
  Si  Si655  1  0.821058  0.797704  0.276521  1
  Si  Si656  1  0.178620  0.202312  0.276527  1
  Si  Si657  1  0.320904  0.702834  0.113570  1
  Si  Si658  1  0.678799  0.297467  0.113756  1
  Si  Si659  1  0.178961  0.202769  0.113561  1
  Si  Si660  1  0.820829  0.797281  0.113682  1
  Si  Si661  1  0.330737  0.250302  0.134533  1
  Si  Si662  1  0.669045  0.749907  0.134665  1
  Si  Si663  1  0.169052  0.750296  0.134535  1
  Si  Si664  1  0.830721  0.249919  0.134669  1
  Si  Si665  1  0.669148  0.750246  0.255593  1
  Si  Si666  1  0.330817  0.249852  0.255703  1
  Si  Si667  1  0.830828  0.250255  0.255589  1
  Si  Si668  1  0.169122  0.749863  0.255707  1
  Si  Si669  1  -0.000000  0.500134  0.159517  1
  Si  Si670  1  0.500011  -0.000000  0.159551  1
  Si  Si671  1  -0.000000  0.500168  0.230741  1
  Si  Si672  1  0.499496  0.000000  0.230711  1
  Si  Si673  1  0.500300  0.500159  0.280585  1
  Si  Si674  1  0.000000  0.000000  0.280558  1
  Si  Si675  1  0.500141  0.500138  0.109672  1
  Si  Si676  1  -0.000000  0.000000  0.109706  1
  Si  Si677  1  0.163109  0.438834  0.417813  1
  Si  Si678  1  0.837029  0.561069  0.417840  1
  Si  Si679  1  0.336929  0.938788  0.417798  1
  Si  Si680  1  0.663075  0.061134  0.417887  1
  Si  Si681  1  0.837134  0.561134  0.456635  1
  Si  Si682  1  0.163306  0.438796  0.456613  1
  Si  Si683  1  0.662715  0.061198  0.456677  1
  Si  Si684  1  0.336519  0.938674  0.456596  1
  Si  Si685  1  0.663267  0.438756  0.538884  1
  Si  Si686  1  0.337169  0.561172  0.538864  1
  Si  Si687  1  0.836569  0.938793  0.538935  1
  Si  Si688  1  0.162648  0.061047  0.538843  1
  Si  Si689  1  0.336974  0.561215  0.335565  1
  Si  Si690  1  0.663164  0.438690  0.335588  1
  Si  Si691  1  0.163074  0.061162  0.335546  1
  Si  Si692  1  0.836943  0.938791  0.335643  1
  Si  Si693  1  0.069210  0.606206  0.374430  1
  Si  Si694  1  0.930719  0.393905  0.374484  1
  Si  Si695  1  0.430527  0.106196  0.374512  1
  Si  Si696  1  0.569296  0.893973  0.374482  1
  Si  Si697  1  0.931180  0.394084  0.499997  1
  Si  Si698  1  0.068877  0.605989  0.500124  1
  Si  Si699  1  0.568915  0.894121  0.499943  1
  Si  Si700  1  0.430960  0.105939  0.500104  1
  Si  Si701  1  0.569399  0.606155  0.495472  1
  Si  Si702  1  0.430655  0.393910  0.495595  1
  Si  Si703  1  0.930684  0.106200  0.495416  1
  Si  Si704  1  0.069160  0.893871  0.495581  1
  Si  Si705  1  0.431000  0.394132  0.378956  1
  Si  Si706  1  0.568937  0.605974  0.379015  1
  Si  Si707  1  0.068750  0.894114  0.379037  1
  Si  Si708  1  0.931078  0.106062  0.379005  1
  Si  Si709  1  0.201041  0.500220  0.359712  1
  Si  Si710  1  0.798530  0.499663  0.359820  1
  Si  Si711  1  0.298781  -0.000000  0.359739  1
  Si  Si712  1  0.701192  0.000000  0.359795  1
  Si  Si713  1  0.798718  0.499580  0.514651  1
  Si  Si714  1  0.201318  0.500355  0.514684  1
  Si  Si715  1  0.701200  0.000000  0.514693  1
  Si  Si716  1  0.298511  -0.000000  0.514662  1
  Si  Si717  1  0.701271  0.500112  0.480799  1
  Si  Si718  1  0.298763  0.499823  0.480832  1
  Si  Si719  1  0.798628  0.000000  0.480838  1
  Si  Si720  1  0.201056  0.000000  0.480813  1
  Si  Si721  1  0.298494  0.499686  0.393563  1
  Si  Si722  1  0.701091  0.500191  0.393674  1
  Si  Si723  1  0.201331  0.000000  0.393590  1
  Si  Si724  1  0.798660  0.000000  0.393644  1
  Si  Si725  1  0.108764  0.353619  0.363334  1
  Si  Si726  1  0.890681  0.646393  0.363542  1
  Si  Si727  1  0.391209  0.853644  0.363352  1
  Si  Si728  1  0.608738  0.146501  0.363462  1
  Si  Si729  1  0.890321  0.646549  0.510906  1
  Si  Si730  1  0.109504  0.353523  0.510937  1
  Si  Si731  1  0.609420  0.146526  0.510936  1
  Si  Si732  1  0.390576  0.853577  0.510900  1
  Si  Si733  1  0.608727  0.353647  0.484443  1
  Si  Si734  1  0.391086  0.646431  0.484479  1
  Si  Si735  1  0.890995  0.853631  0.484475  1
  Si  Si736  1  0.108985  0.146486  0.484441  1
  Si  Si737  1  0.390353  0.646527  0.389797  1
  Si  Si738  1  0.609101  0.353475  0.390006  1
  Si  Si739  1  0.109624  0.146550  0.389809  1
  Si  Si740  1  0.890317  0.853586  0.389912  1
  Si  Si741  1  0.178673  0.297785  0.397494  1
  Si  Si742  1  0.821030  0.702510  0.397681  1
  Si  Si743  1  0.321183  0.797719  0.397490  1
  Si  Si744  1  0.678619  0.202327  0.397620  1
  Si  Si745  1  0.821045  0.702726  0.476747  1
  Si  Si746  1  0.179144  0.297376  0.476797  1
  Si  Si747  1  0.678823  0.202757  0.476783  1
  Si  Si748  1  0.320833  0.797263  0.476790  1
  Si  Si749  1  0.678811  0.297677  0.518577  1
  Si  Si750  1  0.321363  0.702427  0.518631  1
  Si  Si751  1  0.821058  0.797704  0.518615  1
  Si  Si752  1  0.178620  0.202312  0.518621  1
  Si  Si753  1  0.320904  0.702834  0.355664  1
  Si  Si754  1  0.678799  0.297467  0.355850  1
  Si  Si755  1  0.178961  0.202769  0.355655  1
  Si  Si756  1  0.820829  0.797281  0.355776  1
  Si  Si757  1  0.330737  0.250302  0.376627  1
  Si  Si758  1  0.669045  0.749907  0.376759  1
  Si  Si759  1  0.169052  0.750296  0.376629  1
  Si  Si760  1  0.830721  0.249919  0.376763  1
  Si  Si761  1  0.669148  0.750246  0.497687  1
  Si  Si762  1  0.330817  0.249852  0.497797  1
  Si  Si763  1  0.830828  0.250255  0.497683  1
  Si  Si764  1  0.169122  0.749863  0.497801  1
  Si  Si765  1  -0.000000  0.500134  0.401611  1
  Si  Si766  1  0.500011  0.000000  0.401645  1
  Si  Si767  1  -0.000000  0.500168  0.472834  1
  Si  Si768  1  0.499496  -0.000000  0.472804  1
  Si  Si769  1  0.500300  0.500159  0.522679  1
  Si  Si770  1  -0.000000  0.000000  0.522652  1
  Si  Si771  1  0.500141  0.500138  0.351765  1
  Si  Si772  1  -0.000000  0.000000  0.351800  1
  Si  Si773  1  0.163109  0.438834  0.659907  1
  Si  Si774  1  0.837029  0.561069  0.659934  1
  Si  Si775  1  0.336929  0.938788  0.659892  1
  Si  Si776  1  0.663075  0.061134  0.659981  1
  Si  Si777  1  0.837134  0.561134  0.698729  1
  Si  Si778  1  0.163306  0.438796  0.698707  1
  Si  Si779  1  0.662715  0.061198  0.698771  1
  Si  Si780  1  0.336519  0.938674  0.698689  1
  Si  Si781  1  0.663267  0.438756  0.780978  1
  Si  Si782  1  0.337169  0.561172  0.780958  1
  Si  Si783  1  0.836569  0.938793  0.781029  1
  Si  Si784  1  0.162648  0.061047  0.780937  1
  Si  Si785  1  0.336974  0.561215  0.577659  1
  Si  Si786  1  0.663164  0.438690  0.577682  1
  Si  Si787  1  0.163074  0.061162  0.577640  1
  Si  Si788  1  0.836943  0.938791  0.577737  1
  Si  Si789  1  0.069210  0.606206  0.616524  1
  Si  Si790  1  0.930719  0.393905  0.616578  1
  Si  Si791  1  0.430527  0.106196  0.616606  1
  Si  Si792  1  0.569296  0.893973  0.616576  1
  Si  Si793  1  0.931180  0.394084  0.742091  1
  Si  Si794  1  0.068877  0.605989  0.742218  1
  Si  Si795  1  0.568915  0.894121  0.742037  1
  Si  Si796  1  0.430960  0.105939  0.742198  1
  Si  Si797  1  0.569399  0.606155  0.737566  1
  Si  Si798  1  0.430655  0.393910  0.737689  1
  Si  Si799  1  0.930684  0.106200  0.737510  1
  Si  Si800  1  0.069160  0.893871  0.737675  1
  Si  Si801  1  0.431000  0.394132  0.621050  1
  Si  Si802  1  0.568937  0.605974  0.621109  1
  Si  Si803  1  0.068750  0.894114  0.621131  1
  Si  Si804  1  0.931078  0.106062  0.621099  1
  Si  Si805  1  0.201041  0.500220  0.601806  1
  Si  Si806  1  0.798530  0.499663  0.601914  1
  Si  Si807  1  0.298781  0.000000  0.601833  1
  Si  Si808  1  0.701192  0.000000  0.601889  1
  Si  Si809  1  0.798718  0.499580  0.756745  1
  Si  Si810  1  0.201318  0.500355  0.756778  1
  Si  Si811  1  0.701200  0.000000  0.756787  1
  Si  Si812  1  0.298511  -0.000000  0.756756  1
  Si  Si813  1  0.701271  0.500112  0.722893  1
  Si  Si814  1  0.298763  0.499823  0.722926  1
  Si  Si815  1  0.798628  0.000000  0.722932  1
  Si  Si816  1  0.201056  0.000000  0.722907  1
  Si  Si817  1  0.298494  0.499686  0.635656  1
  Si  Si818  1  0.701091  0.500191  0.635768  1
  Si  Si819  1  0.201331  0.000000  0.635684  1
  Si  Si820  1  0.798660  0.000000  0.635738  1
  Si  Si821  1  0.108764  0.353619  0.605428  1
  Si  Si822  1  0.890681  0.646393  0.605636  1
  Si  Si823  1  0.391209  0.853644  0.605446  1
  Si  Si824  1  0.608738  0.146501  0.605556  1
  Si  Si825  1  0.890321  0.646549  0.753000  1
  Si  Si826  1  0.109504  0.353523  0.753031  1
  Si  Si827  1  0.609420  0.146526  0.753030  1
  Si  Si828  1  0.390576  0.853577  0.752994  1
  Si  Si829  1  0.608727  0.353647  0.726537  1
  Si  Si830  1  0.391086  0.646431  0.726573  1
  Si  Si831  1  0.890995  0.853631  0.726569  1
  Si  Si832  1  0.108985  0.146486  0.726535  1
  Si  Si833  1  0.390353  0.646527  0.631891  1
  Si  Si834  1  0.609101  0.353475  0.632100  1
  Si  Si835  1  0.109624  0.146550  0.631903  1
  Si  Si836  1  0.890317  0.853586  0.632006  1
  Si  Si837  1  0.178673  0.297785  0.639588  1
  Si  Si838  1  0.821030  0.702510  0.639775  1
  Si  Si839  1  0.321183  0.797719  0.639584  1
  Si  Si840  1  0.678619  0.202327  0.639714  1
  Si  Si841  1  0.821045  0.702726  0.718841  1
  Si  Si842  1  0.179144  0.297376  0.718890  1
  Si  Si843  1  0.678823  0.202757  0.718877  1
  Si  Si844  1  0.320833  0.797263  0.718883  1
  Si  Si845  1  0.678811  0.297677  0.760671  1
  Si  Si846  1  0.321363  0.702427  0.760725  1
  Si  Si847  1  0.821058  0.797704  0.760709  1
  Si  Si848  1  0.178620  0.202312  0.760715  1
  Si  Si849  1  0.320904  0.702834  0.597758  1
  Si  Si850  1  0.678799  0.297467  0.597944  1
  Si  Si851  1  0.178961  0.202769  0.597749  1
  Si  Si852  1  0.820829  0.797281  0.597870  1
  Si  Si853  1  0.330737  0.250302  0.618721  1
  Si  Si854  1  0.669045  0.749907  0.618853  1
  Si  Si855  1  0.169052  0.750296  0.618723  1
  Si  Si856  1  0.830721  0.249919  0.618857  1
  Si  Si857  1  0.669148  0.750246  0.739781  1
  Si  Si858  1  0.330817  0.249852  0.739891  1
  Si  Si859  1  0.830828  0.250255  0.739777  1
  Si  Si860  1  0.169122  0.749863  0.739895  1
  Si  Si861  1  -0.000000  0.500134  0.643705  1
  Si  Si862  1  0.500011  -0.000000  0.643739  1
  Si  Si863  1  -0.000000  0.500168  0.714928  1
  Si  Si864  1  0.499496  0.000000  0.714898  1
  Si  Si865  1  0.500300  0.500159  0.764773  1
  Si  Si866  1  -0.000000  -0.000000  0.764746  1
  Si  Si867  1  0.500141  0.500138  0.593859  1
  Si  Si868  1  -0.000000  0.000000  0.593894  1
  H  H869  1  0.174075  0.053311  0.062755  1
  H  H870  1  0.674325  0.446105  0.062801  1
  H  H871  1  0.325731  0.553371  0.062776  1
  H  H872  1  0.825676  0.946161  0.062863  1
  H  H873  1  0.174075  0.053311  0.811628  1
  H  H874  1  0.674325  0.446105  0.811674  1
  H  H875  1  0.325731  0.553371  0.811649  1
  H  H876  1  0.825676  0.946161  0.811736  1
