# generated using pymatgen
data_Si24H2O49
_symmetry_space_group_name_H-M   'P 1'
_cell_length_a   13.77465444
_cell_length_b   35.19864774
_cell_length_c   63.07787449
_cell_angle_alpha   90.00000000
_cell_angle_beta   90.00000000
_cell_angle_gamma   90.00000000
_symmetry_Int_Tables_number   1
_chemical_formula_structural   Si24H2O49
_chemical_formula_sum   'Si384 H32 O784'
_cell_volume   30583.2575762
_cell_formula_units_Z   16
loop_
 _symmetry_equiv_pos_site_id
 _symmetry_equiv_pos_as_xyz
  1  'x, y, z'
loop_
 _atom_site_type_symbol
 _atom_site_label
 _atom_site_symmetry_multiplicity
 _atom_site_fract_x
 _atom_site_fract_y
 _atom_site_fract_z
 _atom_site_occupancy
  O  O1  1  0.399757  0.000000  0.183030  1
  O  O2  1  0.600435  0.000000  0.183027  1
  O  O3  1  0.100435  0.000000  0.137449  1
  O  O4  1  0.497566  0.250324  0.160039  1
  O  O5  1  0.996790  0.250151  0.160315  1
  O  O6  1  0.251073  0.108936  0.196165  1
  O  O7  1  0.249325  0.108955  0.124343  1
  O  O8  1  0.749296  0.108918  0.196166  1
  O  O9  1  0.751218  0.108879  0.124342  1
  O  O10  1  0.162952  0.075254  0.226697  1
  O  O11  1  0.337336  0.075175  0.093806  1
  O  O12  1  0.837338  0.075443  0.226814  1
  O  O13  1  0.662895  0.075557  0.093701  1
  O  O14  1  0.246201  0.036237  0.195235  1
  O  O15  1  0.254154  0.036247  0.125307  1
  O  O16  1  0.753472  0.036084  0.195723  1
  O  O17  1  0.746693  0.036064  0.124747  1
  O  O18  1  0.093211  0.074844  0.190803  1
  O  O19  1  0.407149  0.074875  0.129684  1
  O  O20  1  0.906745  0.074498  0.190884  1
  O  O21  1  0.593603  0.074576  0.129650  1
  O  O22  1  0.257024  0.181971  0.127811  1
  O  O23  1  0.257383  0.317953  0.192724  1
  O  O24  1  0.243203  0.181929  0.192756  1
  O  O25  1  0.242885  0.318036  0.127723  1
  O  O26  1  0.742824  0.317991  0.192845  1
  O  O27  1  0.742882  0.181858  0.127675  1
  O  O28  1  0.757345  0.317942  0.127729  1
  O  O29  1  0.757434  0.181938  0.192746  1
  O  O30  1  0.250146  0.140050  0.160268  1
  O  O31  1  0.750099  0.140102  0.160240  1
  O  O32  1  0.099497  0.147383  0.137929  1
  O  O33  1  0.400814  0.147443  0.182589  1
  O  O34  1  0.900601  0.147572  0.137903  1
  O  O35  1  0.599724  0.147516  0.182627  1
  O  O36  1  0.250671  0.249921  0.206874  1
  O  O37  1  0.250738  0.250029  0.113676  1
  O  O38  1  0.750673  0.249880  0.113620  1
  O  O39  1  0.750736  0.249982  0.206903  1
  O  O40  1  0.155739  0.197691  0.226565  1
  O  O41  1  0.155677  0.302127  0.093893  1
  O  O42  1  0.342762  0.197341  0.093723  1
  O  O43  1  0.343520  0.302516  0.226748  1
  O  O44  1  0.842966  0.302469  0.093620  1
  O  O45  1  0.843168  0.197348  0.226843  1
  O  O46  1  0.655538  0.302070  0.226677  1
  O  O47  1  0.656010  0.197730  0.093783  1
  O  O48  1  0.093930  0.222554  0.191311  1
  O  O49  1  0.093821  0.277353  0.129179  1
  O  O50  1  0.407876  0.221764  0.128624  1
  O  O51  1  0.407843  0.277897  0.191801  1
  O  O52  1  0.907936  0.278058  0.128558  1
  O  O53  1  0.908034  0.221855  0.191945  1
  O  O54  1  0.593822  0.277282  0.191382  1
  O  O55  1  0.593700  0.222414  0.129033  1
  O  O56  1  0.127337  0.135945  0.247010  1
  O  O57  1  0.500453  0.321280  0.167067  1
  O  O58  1  0.500445  0.178988  0.153652  1
  O  O59  1  0.899706  0.000000  0.137445  1
  O  O60  1  0.750065  0.001222  0.160232  1
  O  O61  1  0.000000  0.107392  0.162112  1
  O  O62  1  0.500608  0.107402  0.158413  1
  O  O63  1  0.000000  0.035443  0.164182  1
  O  O64  1  0.499827  0.035413  0.156286  1
  O  O65  1  -0.000000  0.178941  0.166901  1
  O  O66  1  0.000000  0.321233  0.153495  1
  O  O67  1  0.000000  0.084558  0.247145  1
  O  O68  1  0.001645  0.250706  0.333548  1
  O  O69  1  0.497942  0.249504  0.333626  1
  O  O70  1  -0.000000  0.321454  0.340866  1
  O  O71  1  0.751192  0.108933  0.369790  1
  O  O72  1  0.748995  0.108965  0.298079  1
  O  O73  1  0.249275  0.109023  0.369836  1
  O  O74  1  0.251171  0.108936  0.298058  1
  O  O75  1  0.662906  0.075358  0.400313  1
  O  O76  1  0.837467  0.075199  0.267580  1
  O  O77  1  0.337131  0.075142  0.400357  1
  O  O78  1  0.163157  0.075373  0.267485  1
  O  O79  1  0.746221  0.036207  0.368889  1
  O  O80  1  0.754053  0.036232  0.299026  1
  O  O81  1  0.253688  0.036290  0.368869  1
  O  O82  1  0.246027  0.036251  0.298960  1
  O  O83  1  0.593377  0.074839  0.364418  1
  O  O84  1  0.906799  0.074945  0.303488  1
  O  O85  1  0.406860  0.074774  0.364466  1
  O  O86  1  0.093188  0.074942  0.303381  1
  O  O87  1  0.757097  0.181997  0.301407  1
  O  O88  1  0.757355  0.317960  0.366386  1
  O  O89  1  0.742740  0.181938  0.366555  1
  O  O90  1  0.742965  0.318104  0.301342  1
  O  O91  1  0.242675  0.318070  0.366521  1
  O  O92  1  0.242820  0.181905  0.301325  1
  O  O93  1  0.257178  0.318003  0.301460  1
  O  O94  1  0.257326  0.182064  0.366403  1
  O  O95  1  0.750139  0.140293  0.333955  1
  O  O96  1  0.249887  0.140216  0.333922  1
  O  O97  1  0.599509  0.147618  0.311617  1
  O  O98  1  0.900610  0.147677  0.356335  1
  O  O99  1  0.400549  0.147651  0.311606  1
  O  O100  1  0.099579  0.147617  0.356357  1
  O  O101  1  0.750173  0.249984  0.380595  1
  O  O102  1  0.750211  0.250067  0.287329  1
  O  O103  1  0.250219  0.249965  0.287350  1
  O  O104  1  0.250271  0.250067  0.380596  1
  O  O105  1  0.655275  0.197923  0.400382  1
  O  O106  1  0.656135  0.302273  0.267421  1
  O  O107  1  0.844012  0.197706  0.267518  1
  O  O108  1  0.844323  0.302419  0.400276  1
  O  O109  1  0.342982  0.302521  0.267399  1
  O  O110  1  0.343509  0.197519  0.400406  1
  O  O111  1  0.156306  0.302314  0.400516  1
  O  O112  1  0.156948  0.197697  0.267279  1
  O  O113  1  0.593526  0.222600  0.365067  1
  O  O114  1  0.593402  0.277738  0.302659  1
  O  O115  1  0.907010  0.222213  0.302648  1
  O  O116  1  0.906958  0.277430  0.365135  1
  O  O117  1  0.407625  0.278101  0.302325  1
  O  O118  1  0.407507  0.222245  0.365432  1
  O  O119  1  0.093008  0.277656  0.365400  1
  O  O120  1  0.092783  0.221966  0.302342  1
  O  O121  1  -0.000000  0.186193  0.247093  1
  O  O122  1  0.499820  0.313817  0.247145  1
  O  O123  1  0.372766  0.135747  0.420711  1
  O  O124  1  0.873203  0.135867  0.247296  1
  O  O125  1  0.899709  -0.000000  0.356687  1
  O  O126  1  0.399701  0.000000  0.311112  1
  O  O127  1  0.499932  0.107159  0.335601  1
  O  O128  1  0.000000  0.107519  0.332202  1
  O  O129  1  0.500066  0.035241  0.337906  1
  O  O130  1  0.000000  0.035463  0.329987  1
  O  O131  1  0.500086  0.178641  0.340779  1
  O  O132  1  0.500146  0.320932  0.327386  1
  O  O133  1  0.000000  0.179179  0.327432  1
  O  O134  1  0.500057  0.084570  0.420706  1
  O  O135  1  0.626995  0.136072  0.420650  1
  O  O136  1  0.600456  0.000000  0.311107  1
  O  O137  1  0.500068  0.464725  0.164279  1
  O  O138  1  0.000000  0.535415  0.156368  1
  O  O139  1  0.000000  0.464742  0.156220  1
  O  O140  1  0.500178  0.535353  0.164159  1
  O  O141  1  0.751189  0.608797  0.196106  1
  O  O142  1  0.251302  0.391017  0.124366  1
  O  O143  1  0.749114  0.608816  0.124425  1
  O  O144  1  0.249142  0.390975  0.196179  1
  O  O145  1  0.749215  0.390961  0.124368  1
  O  O146  1  0.249234  0.608834  0.196117  1
  O  O147  1  0.751167  0.390981  0.196143  1
  O  O148  1  0.251148  0.608781  0.124397  1
  O  O149  1  0.662943  0.575627  0.226747  1
  O  O150  1  0.162887  0.424679  0.093847  1
  O  O151  1  0.837358  0.575460  0.093796  1
  O  O152  1  0.337360  0.424786  0.226694  1
  O  O153  1  0.837230  0.424698  0.093817  1
  O  O154  1  0.337359  0.575400  0.226742  1
  O  O155  1  0.663058  0.424623  0.226696  1
  O  O156  1  0.162893  0.575599  0.093756  1
  O  O157  1  0.746724  0.535999  0.195719  1
  O  O158  1  0.246195  0.463720  0.125289  1
  O  O159  1  0.753464  0.535999  0.124849  1
  O  O160  1  0.253997  0.463701  0.195218  1
  O  O161  1  0.754051  0.463681  0.125303  1
  O  O162  1  0.253358  0.536019  0.195679  1
  O  O163  1  0.746293  0.463693  0.195249  1
  O  O164  1  0.246634  0.536005  0.124804  1
  O  O165  1  0.593441  0.574502  0.190831  1
  O  O166  1  0.093420  0.425033  0.129771  1
  O  O167  1  0.906770  0.574483  0.129707  1
  O  O168  1  0.406895  0.425078  0.190785  1
  O  O169  1  0.906978  0.425070  0.129709  1
  O  O170  1  0.406808  0.574432  0.190832  1
  O  O171  1  0.593366  0.425101  0.190794  1
  O  O172  1  0.093365  0.574535  0.129678  1
  O  O173  1  0.750038  0.640150  0.160282  1
  O  O174  1  0.250090  0.359833  0.160255  1
  O  O175  1  0.750136  0.359712  0.160269  1
  O  O176  1  0.249966  0.640100  0.160237  1
  O  O177  1  0.599471  0.647402  0.137947  1
  O  O178  1  0.099577  0.352354  0.182616  1
  O  O179  1  0.900630  0.647488  0.182599  1
  O  O180  1  0.400706  0.352309  0.137934  1
  O  O181  1  0.900614  0.352280  0.182620  1
  O  O182  1  0.400608  0.647426  0.137933  1
  O  O183  1  0.599658  0.352348  0.137905  1
  O  O184  1  0.099498  0.647372  0.182601  1
  O  O185  1  0.500188  0.392791  0.161921  1
  O  O186  1  0.000000  0.607392  0.158366  1
  O  O187  1  0.600460  0.499871  0.137462  1
  O  O188  1  0.100417  0.499871  0.183041  1
  O  O189  1  0.899749  0.499921  0.183045  1
  O  O190  1  0.399739  0.499921  0.137460  1
  O  O191  1  0.750012  0.500985  0.160280  1
  O  O192  1  0.250086  0.501018  0.160251  1
  O  O193  1  0.500000  0.607289  0.162140  1
  O  O194  1  -0.000000  0.392772  0.158617  1
  O  O195  1  0.627215  0.363953  0.247014  1
  O  O196  1  -0.000000  0.464787  0.337943  1
  O  O197  1  0.251151  0.608857  0.369808  1
  O  O198  1  0.751431  0.391071  0.298041  1
  O  O199  1  0.249005  0.608830  0.298068  1
  O  O200  1  0.749275  0.390989  0.369848  1
  O  O201  1  0.249098  0.391005  0.298038  1
  O  O202  1  0.749400  0.608875  0.369755  1
  O  O203  1  0.251064  0.391039  0.369857  1
  O  O204  1  0.751189  0.608854  0.298115  1
  O  O205  1  0.162785  0.575422  0.400375  1
  O  O206  1  0.663077  0.424552  0.267468  1
  O  O207  1  0.337457  0.575385  0.267495  1
  O  O208  1  0.837301  0.424814  0.400380  1
  O  O209  1  0.337364  0.424758  0.267489  1
  O  O210  1  0.837246  0.575551  0.400409  1
  O  O211  1  0.163007  0.424585  0.400430  1
  O  O212  1  0.662968  0.575636  0.267467  1
  O  O213  1  0.247085  0.536047  0.369345  1
  O  O214  1  0.745871  0.463763  0.298925  1
  O  O215  1  0.253767  0.536019  0.298616  1
  O  O216  1  0.753812  0.463729  0.368911  1
  O  O217  1  0.254201  0.463715  0.298969  1
  O  O218  1  0.753305  0.536059  0.369355  1
  O  O219  1  0.246412  0.463742  0.369036  1
  O  O220  1  0.746648  0.536042  0.298507  1
  O  O221  1  0.093592  0.574440  0.364437  1
  O  O222  1  0.593334  0.424921  0.303374  1
  O  O223  1  0.406843  0.574700  0.303416  1
  O  O224  1  0.906874  0.425214  0.364485  1
  O  O225  1  0.406954  0.425011  0.303394  1
  O  O226  1  0.906918  0.574365  0.364521  1
  O  O227  1  0.093358  0.425259  0.364515  1
  O  O228  1  0.593440  0.574570  0.303374  1
  O  O229  1  0.250221  0.640039  0.333941  1
  O  O230  1  0.749905  0.359837  0.333921  1
  O  O231  1  0.250224  0.359840  0.333968  1
  O  O232  1  0.750048  0.640305  0.333928  1
  O  O233  1  0.099489  0.647435  0.311650  1
  O  O234  1  0.599578  0.352401  0.356343  1
  O  O235  1  0.400795  0.647465  0.356273  1
  O  O236  1  0.900691  0.352364  0.311656  1
  O  O237  1  0.400604  0.352360  0.356356  1
  O  O238  1  0.900641  0.647516  0.311629  1
  O  O239  1  0.099590  0.352415  0.311648  1
  O  O240  1  0.599722  0.647504  0.356316  1
  O  O241  1  0.626993  0.636272  0.247133  1
  O  O242  1  0.499980  0.535282  0.329955  1
  O  O243  1  0.500284  0.464565  0.329895  1
  O  O244  1  0.372911  0.635976  0.247106  1
  O  O245  1  0.872889  0.364162  0.420689  1
  O  O246  1  0.500197  0.584779  0.247105  1
  O  O247  1  -0.000000  0.535365  0.337766  1
  O  O248  1  0.500258  0.415423  0.247087  1
  O  O249  1  -0.000000  0.392901  0.335643  1
  O  O250  1  0.100462  0.499865  0.311081  1
  O  O251  1  0.600408  0.499912  0.356671  1
  O  O252  1  0.399802  0.499819  0.356654  1
  O  O253  1  0.899673  0.499833  0.311086  1
  O  O254  1  0.249475  0.500807  0.334007  1
  O  O255  1  0.750241  0.500998  0.333930  1
  O  O256  1  0.000000  0.607265  0.335807  1
  O  O257  1  0.500042  0.392550  0.332221  1
  O  O258  1  0.500442  0.607288  0.332144  1
  O  O259  1  0.127218  0.636142  0.420589  1
  O  O260  1  0.372973  0.364207  0.247085  1
  O  O261  1  0.003619  0.750317  0.160046  1
  O  O262  1  0.497088  0.750029  0.160269  1
  O  O263  1  0.751140  0.891081  0.124421  1
  O  O264  1  0.749212  0.891038  0.196059  1
  O  O265  1  0.249045  0.891109  0.124389  1
  O  O266  1  0.251219  0.891135  0.196127  1
  O  O267  1  0.663045  0.924538  0.093869  1
  O  O268  1  0.837188  0.924725  0.226595  1
  O  O269  1  0.337458  0.924567  0.093794  1
  O  O270  1  0.162822  0.924391  0.226737  1
  O  O271  1  0.746083  0.963785  0.125299  1
  O  O272  1  0.753928  0.963777  0.195149  1
  O  O273  1  0.253419  0.963951  0.124838  1
  O  O274  1  0.246765  0.963957  0.195721  1
  O  O275  1  0.593155  0.925127  0.129741  1
  O  O276  1  0.907016  0.925216  0.190738  1
  O  O277  1  0.406593  0.925450  0.129735  1
  O  O278  1  0.093607  0.925463  0.190785  1
  O  O279  1  0.757038  0.681853  0.127751  1
  O  O280  1  0.757065  0.817984  0.192752  1
  O  O281  1  0.742818  0.681792  0.192868  1
  O  O282  1  0.742952  0.818080  0.127612  1
  O  O283  1  0.242575  0.818135  0.192852  1
  O  O284  1  0.242886  0.681766  0.127645  1
  O  O285  1  0.257345  0.818073  0.127758  1
  O  O286  1  0.257084  0.681871  0.192740  1
  O  O287  1  0.749963  0.859680  0.160223  1
  O  O288  1  0.250035  0.859827  0.160276  1
  O  O289  1  0.599449  0.852464  0.182582  1
  O  O290  1  0.900667  0.852427  0.137931  1
  O  O291  1  0.400517  0.852356  0.182615  1
  O  O292  1  0.099592  0.852419  0.137914  1
  O  O293  1  0.750014  0.749906  0.206811  1
  O  O294  1  0.750029  0.749952  0.113707  1
  O  O295  1  0.249992  0.749944  0.113779  1
  O  O296  1  0.250031  0.750001  0.206757  1
  O  O297  1  0.655485  0.697889  0.226693  1
  O  O298  1  0.655591  0.801959  0.093789  1
  O  O299  1  0.844398  0.697752  0.093951  1
  O  O300  1  0.844839  0.802070  0.226500  1
  O  O301  1  0.342941  0.802278  0.093710  1
  O  O302  1  0.342892  0.697593  0.226765  1
  O  O303  1  0.156910  0.802182  0.226915  1
  O  O304  1  0.157550  0.697716  0.093535  1
  O  O305  1  0.593448  0.722402  0.191371  1
  O  O306  1  0.593530  0.777533  0.129136  1
  O  O307  1  0.906562  0.722382  0.129195  1
  O  O308  1  0.906455  0.777343  0.191210  1
  O  O309  1  0.407606  0.777996  0.128650  1
  O  O310  1  0.407490  0.721919  0.191834  1
  O  O311  1  0.092451  0.777984  0.191895  1
  O  O312  1  0.092433  0.721711  0.128518  1
  O  O313  1  0.500032  0.678837  0.166931  1
  O  O314  1  0.000000  0.964798  0.164215  1
  O  O315  1  -0.000000  0.821331  0.167041  1
  O  O316  1  0.000000  0.678977  0.153665  1
  O  O317  1  0.500024  0.821187  0.153538  1
  O  O318  1  0.249961  0.998926  0.160276  1
  O  O319  1  0.499647  0.892740  0.158515  1
  O  O320  1  -0.000000  0.892851  0.161964  1
  O  O321  1  0.500406  0.964723  0.156287  1
  O  O322  1  -0.000000  0.915225  0.247022  1
  O  O323  1  0.872879  0.863934  0.246805  1
  O  O324  1  0.500497  0.821235  0.340663  1
  O  O325  1  0.500519  0.678876  0.327306  1
  O  O326  1  0.497475  0.750155  0.333830  1
  O  O327  1  0.251277  0.891177  0.298037  1
  O  O328  1  0.249072  0.891149  0.369828  1
  O  O329  1  0.749214  0.891143  0.298065  1
  O  O330  1  0.750931  0.891122  0.369777  1
  O  O331  1  0.162514  0.924522  0.267462  1
  O  O332  1  0.337601  0.924575  0.400407  1
  O  O333  1  0.837064  0.924388  0.267362  1
  O  O334  1  0.663136  0.924365  0.400474  1
  O  O335  1  0.246600  0.963976  0.298490  1
  O  O336  1  0.253397  0.963969  0.369371  1
  O  O337  1  0.753607  0.963926  0.298457  1
  O  O338  1  0.746824  0.963903  0.369408  1
  O  O339  1  0.093530  0.925367  0.303419  1
  O  O340  1  0.406669  0.925472  0.364465  1
  O  O341  1  0.906969  0.925440  0.303256  1
  O  O342  1  0.593289  0.925556  0.364578  1
  O  O343  1  0.257149  0.681887  0.301470  1
  O  O344  1  0.257144  0.818120  0.366374  1
  O  O345  1  0.243017  0.681882  0.366411  1
  O  O346  1  0.243111  0.818184  0.301431  1
  O  O347  1  0.742847  0.818136  0.366514  1
  O  O348  1  0.743041  0.681860  0.301290  1
  O  O349  1  0.757235  0.818134  0.301343  1
  O  O350  1  0.757444  0.681915  0.366518  1
  O  O351  1  0.250015  0.860018  0.333924  1
  O  O352  1  0.750132  0.859798  0.333926  1
  O  O353  1  0.099412  0.852613  0.356254  1
  O  O354  1  0.400775  0.852581  0.311649  1
  O  O355  1  0.900544  0.852512  0.356276  1
  O  O356  1  0.599624  0.852562  0.311598  1
  O  O357  1  0.250683  0.749975  0.380410  1
  O  O358  1  0.250723  0.750071  0.287492  1
  O  O359  1  0.750733  0.749979  0.287375  1
  O  O360  1  0.750622  0.750072  0.380511  1
  O  O361  1  0.155533  0.697923  0.400165  1
  O  O362  1  0.155905  0.802128  0.267631  1
  O  O363  1  0.342864  0.697579  0.267430  1
  O  O364  1  0.343161  0.802490  0.400394  1
  O  O365  1  0.842646  0.802457  0.267218  1
  O  O366  1  0.843246  0.697726  0.400579  1
  O  O367  1  0.655776  0.802126  0.400364  1
  O  O368  1  0.655834  0.698046  0.267466  1
  O  O369  1  0.093904  0.722679  0.364882  1
  O  O370  1  0.093852  0.777550  0.302896  1
  O  O371  1  0.407936  0.721769  0.302355  1
  O  O372  1  0.407779  0.778101  0.365454  1
  O  O373  1  0.907991  0.778326  0.302165  1
  O  O374  1  0.907884  0.721961  0.365591  1
  O  O375  1  0.593760  0.777442  0.365070  1
  O  O376  1  0.593862  0.722455  0.302787  1
  O  O377  1  0.000000  0.821126  0.327289  1
  O  O378  1  -0.000000  0.678779  0.340686  1
  O  O379  1  0.500125  0.964645  0.337844  1
  O  O380  1  -0.000000  0.964729  0.329918  1
  O  O381  1  0.500388  0.892746  0.335805  1
  O  O382  1  0.000000  0.892725  0.332085  1
  O  O383  1  0.996465  0.749836  0.333780  1
  O  O384  1  0.749891  0.998808  0.333945  1
  O  O385  1  0.250126  0.998947  0.333928  1
  O  O386  1  0.499589  0.686415  0.247125  1
  O  O387  1  -0.000000  0.813620  0.247152  1
  O  O388  1  0.127045  0.863845  0.247195  1
  O  O389  1  0.100328  -0.000000  0.356687  1
  O  O390  1  0.499731  0.813624  0.420756  1
  O  O391  1  0.399757  0.000000  0.530382  1
  O  O392  1  0.600435  0.000000  0.530379  1
  O  O393  1  0.100435  0.000000  0.484801  1
  O  O394  1  0.497566  0.250324  0.507390  1
  O  O395  1  0.996790  0.250151  0.507667  1
  O  O396  1  0.251073  0.108936  0.543516  1
  O  O397  1  0.249325  0.108955  0.471694  1
  O  O398  1  0.749296  0.108918  0.543518  1
  O  O399  1  0.751218  0.108879  0.471694  1
  O  O400  1  0.162952  0.075254  0.574048  1
  O  O401  1  0.337336  0.075175  0.441158  1
  O  O402  1  0.837338  0.075443  0.574165  1
  O  O403  1  0.662895  0.075557  0.441052  1
  O  O404  1  0.246201  0.036237  0.542587  1
  O  O405  1  0.254154  0.036247  0.472659  1
  O  O406  1  0.753472  0.036084  0.543074  1
  O  O407  1  0.746693  0.036064  0.472099  1
  O  O408  1  0.093211  0.074844  0.538154  1
  O  O409  1  0.407149  0.074875  0.477035  1
  O  O410  1  0.906745  0.074498  0.538235  1
  O  O411  1  0.593603  0.074576  0.477001  1
  O  O412  1  0.257024  0.181971  0.475163  1
  O  O413  1  0.257383  0.317953  0.540076  1
  O  O414  1  0.243203  0.181929  0.540108  1
  O  O415  1  0.242885  0.318036  0.475075  1
  O  O416  1  0.742824  0.317991  0.540196  1
  O  O417  1  0.742882  0.181858  0.475027  1
  O  O418  1  0.757345  0.317942  0.475080  1
  O  O419  1  0.757434  0.181938  0.540097  1
  O  O420  1  0.250146  0.140050  0.507619  1
  O  O421  1  0.750099  0.140102  0.507591  1
  O  O422  1  0.099497  0.147383  0.485280  1
  O  O423  1  0.400814  0.147443  0.529941  1
  O  O424  1  0.900601  0.147572  0.485254  1
  O  O425  1  0.599724  0.147516  0.529978  1
  O  O426  1  0.250671  0.249921  0.554225  1
  O  O427  1  0.250738  0.250029  0.461028  1
  O  O428  1  0.750673  0.249880  0.460972  1
  O  O429  1  0.750736  0.249982  0.554254  1
  O  O430  1  0.155739  0.197691  0.573916  1
  O  O431  1  0.155677  0.302127  0.441245  1
  O  O432  1  0.342762  0.197341  0.441074  1
  O  O433  1  0.343520  0.302516  0.574099  1
  O  O434  1  0.842966  0.302469  0.440971  1
  O  O435  1  0.843168  0.197348  0.574194  1
  O  O436  1  0.655538  0.302070  0.574029  1
  O  O437  1  0.656010  0.197730  0.441134  1
  O  O438  1  0.093930  0.222554  0.538662  1
  O  O439  1  0.093821  0.277353  0.476531  1
  O  O440  1  0.407876  0.221764  0.475975  1
  O  O441  1  0.407843  0.277897  0.539153  1
  O  O442  1  0.907936  0.278058  0.475909  1
  O  O443  1  0.908034  0.221855  0.539297  1
  O  O444  1  0.593822  0.277282  0.538733  1
  O  O445  1  0.593700  0.222414  0.476385  1
  O  O446  1  0.499620  0.186169  0.420857  1
  O  O447  1  0.127337  0.135945  0.594361  1
  O  O448  1  0.500453  0.321280  0.514418  1
  O  O449  1  0.500445  0.178988  0.501003  1
  O  O450  1  0.899706  -0.000000  0.484796  1
  O  O451  1  0.750065  0.001222  0.507583  1
  O  O452  1  0.000000  0.107392  0.509463  1
  O  O453  1  0.500608  0.107402  0.505764  1
  O  O454  1  0.000000  0.035443  0.511533  1
  O  O455  1  0.499827  0.035413  0.503638  1
  O  O456  1  0.000000  0.178941  0.514253  1
  O  O457  1  0.000000  0.321233  0.500846  1
  O  O458  1  -0.000000  0.313846  0.420815  1
  O  O459  1  -0.000000  0.084558  0.594497  1
  O  O460  1  0.001645  0.250706  0.680899  1
  O  O461  1  0.497942  0.249504  0.680977  1
  O  O462  1  -0.000000  0.321454  0.688217  1
  O  O463  1  0.751192  0.108933  0.717141  1
  O  O464  1  0.748995  0.108965  0.645431  1
  O  O465  1  0.249275  0.109023  0.717187  1
  O  O466  1  0.251171  0.108936  0.645410  1
  O  O467  1  0.662906  0.075358  0.747665  1
  O  O468  1  0.837467  0.075199  0.614932  1
  O  O469  1  0.337131  0.075142  0.747709  1
  O  O470  1  0.163157  0.075373  0.614836  1
  O  O471  1  0.746221  0.036207  0.716240  1
  O  O472  1  0.754053  0.036232  0.646378  1
  O  O473  1  0.253688  0.036290  0.716220  1
  O  O474  1  0.246027  0.036251  0.646312  1
  O  O475  1  0.593377  0.074839  0.711769  1
  O  O476  1  0.906799  0.074945  0.650839  1
  O  O477  1  0.406860  0.074774  0.711817  1
  O  O478  1  0.093188  0.074942  0.650732  1
  O  O479  1  0.757097  0.181997  0.648758  1
  O  O480  1  0.757355  0.317960  0.713737  1
  O  O481  1  0.742740  0.181938  0.713907  1
  O  O482  1  0.742965  0.318104  0.648693  1
  O  O483  1  0.242675  0.318070  0.713872  1
  O  O484  1  0.242820  0.181905  0.648676  1
  O  O485  1  0.257178  0.318003  0.648811  1
  O  O486  1  0.257326  0.182064  0.713754  1
  O  O487  1  0.750139  0.140293  0.681306  1
  O  O488  1  0.249887  0.140216  0.681274  1
  O  O489  1  0.599509  0.147618  0.658969  1
  O  O490  1  0.900610  0.147677  0.703687  1
  O  O491  1  0.400549  0.147651  0.658957  1
  O  O492  1  0.099579  0.147617  0.703708  1
  O  O493  1  0.750173  0.249984  0.727946  1
  O  O494  1  0.750211  0.250067  0.634680  1
  O  O495  1  0.250219  0.249965  0.634701  1
  O  O496  1  0.250271  0.250067  0.727948  1
  O  O497  1  0.655275  0.197923  0.747733  1
  O  O498  1  0.656135  0.302273  0.614772  1
  O  O499  1  0.844012  0.197706  0.614869  1
  O  O500  1  0.844323  0.302419  0.747627  1
  O  O501  1  0.342982  0.302521  0.614751  1
  O  O502  1  0.343509  0.197519  0.747757  1
  O  O503  1  0.156306  0.302314  0.747867  1
  O  O504  1  0.156948  0.197697  0.614630  1
  O  O505  1  0.593526  0.222600  0.712418  1
  O  O506  1  0.593402  0.277738  0.650011  1
  O  O507  1  0.907010  0.222213  0.649999  1
  O  O508  1  0.906958  0.277430  0.712487  1
  O  O509  1  0.407625  0.278101  0.649677  1
  O  O510  1  0.407507  0.222245  0.712783  1
  O  O511  1  0.093008  0.277656  0.712751  1
  O  O512  1  0.092783  0.221966  0.649693  1
  O  O513  1  -0.000000  0.186193  0.594444  1
  O  O514  1  0.499820  0.313817  0.594496  1
  O  O515  1  0.873203  0.135867  0.594648  1
  O  O516  1  0.899709  0.000000  0.704038  1
  O  O517  1  0.399701  0.000000  0.658464  1
  O  O518  1  0.499932  0.107159  0.682952  1
  O  O519  1  -0.000000  0.107519  0.679553  1
  O  O520  1  0.500066  0.035241  0.685258  1
  O  O521  1  0.000000  0.035463  0.677338  1
  O  O522  1  0.500086  0.178641  0.688131  1
  O  O523  1  0.500146  0.320932  0.674738  1
  O  O524  1  0.000000  0.179179  0.674783  1
  O  O525  1  0.600456  0.000000  0.658458  1
  O  O526  1  0.500068  0.464725  0.511630  1
  O  O527  1  -0.000000  0.535415  0.503720  1
  O  O528  1  -0.000000  0.464742  0.503572  1
  O  O529  1  0.500178  0.535353  0.511511  1
  O  O530  1  0.751189  0.608797  0.543458  1
  O  O531  1  0.251302  0.391017  0.471717  1
  O  O532  1  0.749114  0.608816  0.471777  1
  O  O533  1  0.249142  0.390975  0.543530  1
  O  O534  1  0.749215  0.390961  0.471720  1
  O  O535  1  0.249234  0.608834  0.543468  1
  O  O536  1  0.751167  0.390981  0.543494  1
  O  O537  1  0.251148  0.608781  0.471749  1
  O  O538  1  0.662943  0.575627  0.574098  1
  O  O539  1  0.162887  0.424679  0.441199  1
  O  O540  1  0.837358  0.575460  0.441147  1
  O  O541  1  0.337360  0.424786  0.574046  1
  O  O542  1  0.837230  0.424698  0.441168  1
  O  O543  1  0.337359  0.575400  0.574093  1
  O  O544  1  0.663058  0.424623  0.574048  1
  O  O545  1  0.162893  0.575599  0.441107  1
  O  O546  1  0.746724  0.535999  0.543070  1
  O  O547  1  0.246195  0.463720  0.472640  1
  O  O548  1  0.753464  0.535999  0.472200  1
  O  O549  1  0.253997  0.463701  0.542570  1
  O  O550  1  0.754051  0.463681  0.472654  1
  O  O551  1  0.253358  0.536019  0.543030  1
  O  O552  1  0.746293  0.463693  0.542601  1
  O  O553  1  0.246634  0.536005  0.472155  1
  O  O554  1  0.593441  0.574502  0.538182  1
  O  O555  1  0.093420  0.425033  0.477122  1
  O  O556  1  0.906770  0.574483  0.477058  1
  O  O557  1  0.406895  0.425078  0.538136  1
  O  O558  1  0.906978  0.425070  0.477061  1
  O  O559  1  0.406808  0.574432  0.538184  1
  O  O560  1  0.593366  0.425101  0.538145  1
  O  O561  1  0.093365  0.574535  0.477030  1
  O  O562  1  0.750038  0.640150  0.507633  1
  O  O563  1  0.250090  0.359833  0.507607  1
  O  O564  1  0.750136  0.359712  0.507620  1
  O  O565  1  0.249966  0.640100  0.507588  1
  O  O566  1  0.599471  0.647402  0.485299  1
  O  O567  1  0.099577  0.352354  0.529967  1
  O  O568  1  0.900630  0.647488  0.529950  1
  O  O569  1  0.400706  0.352309  0.485285  1
  O  O570  1  0.900614  0.352280  0.529971  1
  O  O571  1  0.400608  0.647426  0.485284  1
  O  O572  1  0.599658  0.352348  0.485257  1
  O  O573  1  0.099498  0.647372  0.529953  1
  O  O574  1  0.500188  0.392791  0.509273  1
  O  O575  1  0.873110  0.636107  0.420858  1
  O  O576  1  -0.000000  0.607392  0.505717  1
  O  O577  1  0.600460  0.499871  0.484814  1
  O  O578  1  0.100417  0.499871  0.530393  1
  O  O579  1  0.899749  0.499921  0.530397  1
  O  O580  1  0.399739  0.499921  0.484811  1
  O  O581  1  0.750012  0.500985  0.507631  1
  O  O582  1  0.250086  0.501018  0.507602  1
  O  O583  1  0.500000  0.607289  0.509491  1
  O  O584  1  -0.000000  0.392772  0.505968  1
  O  O585  1  0.127231  0.364002  0.420893  1
  O  O586  1  0.627215  0.363953  0.594366  1
  O  O587  1  -0.000000  0.415411  0.420788  1
  O  O588  1  0.000000  0.584788  0.420759  1
  O  O589  1  -0.000000  0.464787  0.685294  1
  O  O590  1  0.251151  0.608857  0.717159  1
  O  O591  1  0.751431  0.391071  0.645393  1
  O  O592  1  0.249005  0.608830  0.645420  1
  O  O593  1  0.749275  0.390989  0.717200  1
  O  O594  1  0.249098  0.391005  0.645389  1
  O  O595  1  0.749400  0.608875  0.717106  1
  O  O596  1  0.251064  0.391039  0.717208  1
  O  O597  1  0.751189  0.608854  0.645467  1
  O  O598  1  0.162785  0.575422  0.747727  1
  O  O599  1  0.663077  0.424552  0.614819  1
  O  O600  1  0.337457  0.575385  0.614846  1
  O  O601  1  0.837301  0.424814  0.747731  1
  O  O602  1  0.337364  0.424758  0.614840  1
  O  O603  1  0.837246  0.575551  0.747760  1
  O  O604  1  0.163007  0.424585  0.747781  1
  O  O605  1  0.662968  0.575636  0.614818  1
  O  O606  1  0.247085  0.536047  0.716697  1
  O  O607  1  0.745871  0.463763  0.646277  1
  O  O608  1  0.253767  0.536019  0.645967  1
  O  O609  1  0.753812  0.463729  0.716262  1
  O  O610  1  0.254201  0.463715  0.646321  1
  O  O611  1  0.753305  0.536059  0.716707  1
  O  O612  1  0.246412  0.463742  0.716387  1
  O  O613  1  0.746648  0.536042  0.645859  1
  O  O614  1  0.093592  0.574440  0.711788  1
  O  O615  1  0.593334  0.424921  0.650726  1
  O  O616  1  0.406843  0.574700  0.650767  1
  O  O617  1  0.906874  0.425214  0.711836  1
  O  O618  1  0.406954  0.425011  0.650746  1
  O  O619  1  0.906918  0.574365  0.711872  1
  O  O620  1  0.093358  0.425259  0.711867  1
  O  O621  1  0.593440  0.574570  0.650726  1
  O  O622  1  0.250221  0.640039  0.681292  1
  O  O623  1  0.749905  0.359837  0.681273  1
  O  O624  1  0.250224  0.359840  0.681319  1
  O  O625  1  0.750048  0.640305  0.681279  1
  O  O626  1  0.099489  0.647435  0.659002  1
  O  O627  1  0.599578  0.352401  0.703695  1
  O  O628  1  0.400795  0.647465  0.703624  1
  O  O629  1  0.900691  0.352364  0.659008  1
  O  O630  1  0.400604  0.352360  0.703708  1
  O  O631  1  0.900641  0.647516  0.658981  1
  O  O632  1  0.099590  0.352415  0.659000  1
  O  O633  1  0.599722  0.647504  0.703668  1
  O  O634  1  0.626993  0.636272  0.594485  1
  O  O635  1  0.499980  0.535282  0.677306  1
  O  O636  1  0.500284  0.464565  0.677246  1
  O  O637  1  0.372911  0.635976  0.594457  1
  O  O638  1  0.500197  0.584779  0.594457  1
  O  O639  1  -0.000000  0.535365  0.685117  1
  O  O640  1  0.500258  0.415423  0.594438  1
  O  O641  1  -0.000000  0.392901  0.682994  1
  O  O642  1  0.100462  0.499865  0.658432  1
  O  O643  1  0.600408  0.499912  0.704022  1
  O  O644  1  0.399802  0.499819  0.704005  1
  O  O645  1  0.899673  0.499833  0.658437  1
  O  O646  1  0.249475  0.500807  0.681358  1
  O  O647  1  0.750241  0.500998  0.681281  1
  O  O648  1  0.000000  0.607265  0.683159  1
  O  O649  1  0.500042  0.392550  0.679573  1
  O  O650  1  0.500442  0.607288  0.679496  1
  O  O651  1  0.372973  0.364207  0.594436  1
  O  O652  1  0.003619  0.750317  0.507397  1
  O  O653  1  0.497088  0.750029  0.507620  1
  O  O654  1  0.751140  0.891081  0.471773  1
  O  O655  1  0.749212  0.891038  0.543410  1
  O  O656  1  0.249045  0.891109  0.471740  1
  O  O657  1  0.251219  0.891135  0.543478  1
  O  O658  1  0.663045  0.924538  0.441221  1
  O  O659  1  0.837188  0.924725  0.573947  1
  O  O660  1  0.337458  0.924567  0.441145  1
  O  O661  1  0.162822  0.924391  0.574089  1
  O  O662  1  0.746083  0.963785  0.472651  1
  O  O663  1  0.753928  0.963777  0.542500  1
  O  O664  1  0.253419  0.963951  0.472190  1
  O  O665  1  0.246765  0.963957  0.543073  1
  O  O666  1  0.593155  0.925127  0.477092  1
  O  O667  1  0.907016  0.925216  0.538089  1
  O  O668  1  0.406593  0.925450  0.477086  1
  O  O669  1  0.093607  0.925463  0.538137  1
  O  O670  1  0.757038  0.681853  0.475103  1
  O  O671  1  0.757065  0.817984  0.540104  1
  O  O672  1  0.742818  0.681792  0.540220  1
  O  O673  1  0.742952  0.818080  0.474964  1
  O  O674  1  0.242575  0.818135  0.540203  1
  O  O675  1  0.242886  0.681766  0.474997  1
  O  O676  1  0.257345  0.818073  0.475109  1
  O  O677  1  0.257084  0.681871  0.540091  1
  O  O678  1  0.749963  0.859680  0.507574  1
  O  O679  1  0.250035  0.859827  0.507627  1
  O  O680  1  0.599449  0.852464  0.529933  1
  O  O681  1  0.900667  0.852427  0.485282  1
  O  O682  1  0.400517  0.852356  0.529966  1
  O  O683  1  0.099592  0.852419  0.485266  1
  O  O684  1  0.750014  0.749906  0.554162  1
  O  O685  1  0.750029  0.749952  0.461058  1
  O  O686  1  0.249992  0.749944  0.461131  1
  O  O687  1  0.250031  0.750001  0.554109  1
  O  O688  1  0.655485  0.697889  0.574044  1
  O  O689  1  0.655591  0.801959  0.441140  1
  O  O690  1  0.844398  0.697752  0.441302  1
  O  O691  1  0.844839  0.802070  0.573851  1
  O  O692  1  0.342941  0.802278  0.441062  1
  O  O693  1  0.342892  0.697593  0.574116  1
  O  O694  1  0.156910  0.802182  0.574266  1
  O  O695  1  0.157550  0.697716  0.440887  1
  O  O696  1  0.593448  0.722402  0.538722  1
  O  O697  1  0.593530  0.777533  0.476487  1
  O  O698  1  0.906562  0.722382  0.476546  1
  O  O699  1  0.906455  0.777343  0.538561  1
  O  O700  1  0.407606  0.777996  0.476001  1
  O  O701  1  0.407490  0.721919  0.539185  1
  O  O702  1  0.092451  0.777984  0.539246  1
  O  O703  1  0.092433  0.721711  0.475870  1
  O  O704  1  -0.000000  0.686408  0.420797  1
  O  O705  1  0.500032  0.678837  0.514282  1
  O  O706  1  0.000000  0.964798  0.511566  1
  O  O707  1  0.000000  0.821331  0.514392  1
  O  O708  1  -0.000000  0.678977  0.501017  1
  O  O709  1  0.500024  0.821187  0.500890  1
  O  O710  1  0.249961  0.998926  0.507627  1
  O  O711  1  0.499647  0.892740  0.505867  1
  O  O712  1  0.000000  0.892851  0.509316  1
  O  O713  1  0.500406  0.964723  0.503639  1
  O  O714  1  0.500381  0.915228  0.420815  1
  O  O715  1  0.000000  0.915225  0.594374  1
  O  O716  1  0.627217  0.863778  0.420867  1
  O  O717  1  0.872879  0.863934  0.594156  1
  O  O718  1  0.373044  0.864006  0.420806  1
  O  O719  1  0.500497  0.821235  0.688015  1
  O  O720  1  0.500519  0.678876  0.674657  1
  O  O721  1  0.497475  0.750155  0.681182  1
  O  O722  1  0.251277  0.891177  0.645389  1
  O  O723  1  0.249072  0.891149  0.717179  1
  O  O724  1  0.749214  0.891143  0.645416  1
  O  O725  1  0.750931  0.891122  0.717129  1
  O  O726  1  0.162514  0.924522  0.614813  1
  O  O727  1  0.337601  0.924575  0.747758  1
  O  O728  1  0.837064  0.924388  0.614714  1
  O  O729  1  0.663136  0.924365  0.747825  1
  O  O730  1  0.246600  0.963976  0.645841  1
  O  O731  1  0.253397  0.963969  0.716722  1
  O  O732  1  0.753607  0.963926  0.645809  1
  O  O733  1  0.746824  0.963903  0.716760  1
  O  O734  1  0.093530  0.925367  0.650771  1
  O  O735  1  0.406669  0.925472  0.711817  1
  O  O736  1  0.906969  0.925440  0.650608  1
  O  O737  1  0.593289  0.925556  0.711929  1
  O  O738  1  0.257149  0.681887  0.648822  1
  O  O739  1  0.257144  0.818120  0.713725  1
  O  O740  1  0.243017  0.681882  0.713763  1
  O  O741  1  0.243111  0.818184  0.648782  1
  O  O742  1  0.742847  0.818136  0.713866  1
  O  O743  1  0.743041  0.681860  0.648642  1
  O  O744  1  0.757235  0.818134  0.648694  1
  O  O745  1  0.757444  0.681915  0.713870  1
  O  O746  1  0.250015  0.860018  0.681276  1
  O  O747  1  0.750132  0.859798  0.681277  1
  O  O748  1  0.099412  0.852613  0.703606  1
  O  O749  1  0.400775  0.852581  0.659000  1
  O  O750  1  0.900544  0.852512  0.703627  1
  O  O751  1  0.599624  0.852562  0.658949  1
  O  O752  1  0.250683  0.749975  0.727762  1
  O  O753  1  0.250723  0.750071  0.634843  1
  O  O754  1  0.750733  0.749979  0.634726  1
  O  O755  1  0.750622  0.750072  0.727863  1
  O  O756  1  0.155533  0.697923  0.747516  1
  O  O757  1  0.155905  0.802128  0.614983  1
  O  O758  1  0.342864  0.697579  0.614781  1
  O  O759  1  0.343161  0.802490  0.747745  1
  O  O760  1  0.842646  0.802457  0.614569  1
  O  O761  1  0.843246  0.697726  0.747931  1
  O  O762  1  0.655776  0.802126  0.747716  1
  O  O763  1  0.655834  0.698046  0.614818  1
  O  O764  1  0.093904  0.722679  0.712233  1
  O  O765  1  0.093852  0.777550  0.650248  1
  O  O766  1  0.407936  0.721769  0.649706  1
  O  O767  1  0.407779  0.778101  0.712805  1
  O  O768  1  0.907991  0.778326  0.649516  1
  O  O769  1  0.907884  0.721961  0.712942  1
  O  O770  1  0.593760  0.777442  0.712422  1
  O  O771  1  0.593862  0.722455  0.650139  1
  O  O772  1  0.000000  0.821126  0.674640  1
  O  O773  1  0.000000  0.678779  0.688038  1
  O  O774  1  0.500125  0.964645  0.685196  1
  O  O775  1  0.000000  0.964729  0.677269  1
  O  O776  1  0.500388  0.892746  0.683156  1
  O  O777  1  0.000000  0.892725  0.679436  1
  O  O778  1  0.996465  0.749836  0.681131  1
  O  O779  1  0.749891  0.998808  0.681296  1
  O  O780  1  0.250126  0.998947  0.681279  1
  O  O781  1  0.499589  0.686415  0.594476  1
  O  O782  1  -0.000000  0.813620  0.594503  1
  O  O783  1  0.127045  0.863845  0.594546  1
  O  O784  1  0.100328  0.000000  0.704038  1
  Si  Si785  1  0.191929  0.072817  0.202668  1
  Si  Si786  1  0.308391  0.072814  0.117839  1
  Si  Si787  1  0.808151  0.072818  0.202819  1
  Si  Si788  1  0.692125  0.072842  0.117687  1
  Si  Si789  1  0.213764  0.144579  0.136969  1
  Si  Si790  1  0.286553  0.144597  0.183564  1
  Si  Si791  1  0.786350  0.144605  0.136928  1
  Si  Si792  1  0.714002  0.144602  0.183563  1
  Si  Si793  1  0.186633  0.213704  0.204627  1
  Si  Si794  1  0.186523  0.286206  0.115859  1
  Si  Si795  1  0.313694  0.213494  0.115746  1
  Si  Si796  1  0.313953  0.286365  0.204757  1
  Si  Si797  1  0.813813  0.286375  0.115657  1
  Si  Si798  1  0.813899  0.213495  0.204828  1
  Si  Si799  1  0.686491  0.286157  0.204715  1
  Si  Si800  1  0.686591  0.213657  0.115768  1
  Si  Si801  1  0.112153  0.179824  0.246980  1
  Si  Si802  1  0.785017  0.000000  0.136678  1
  Si  Si803  1  -0.000000  0.072655  0.177177  1
  Si  Si804  1  0.500399  0.072679  0.143335  1
  Si  Si805  1  0.000000  0.146116  0.150189  1
  Si  Si806  1  0.500309  0.146126  0.170337  1
  Si  Si807  1  -0.000000  0.218829  0.177657  1
  Si  Si808  1  -0.000000  0.281234  0.142836  1
  Si  Si809  1  0.500176  0.218793  0.142814  1
  Si  Si810  1  0.500210  0.281197  0.177638  1
  Si  Si811  1  0.000000  0.000000  0.149451  1
  Si  Si812  1  0.500089  -0.000000  0.171018  1
  Si  Si813  1  0.715124  0.000000  0.183786  1
  Si  Si814  1  0.611867  0.320080  0.247052  1
  Si  Si815  1  0.692049  0.072825  0.376300  1
  Si  Si816  1  0.808183  0.072840  0.291594  1
  Si  Si817  1  0.308113  0.072821  0.376326  1
  Si  Si818  1  0.191925  0.072867  0.291521  1
  Si  Si819  1  0.713754  0.144706  0.310649  1
  Si  Si820  1  0.786352  0.144729  0.357272  1
  Si  Si821  1  0.286310  0.144689  0.310620  1
  Si  Si822  1  0.213861  0.144714  0.357253  1
  Si  Si823  1  0.686188  0.213749  0.378400  1
  Si  Si824  1  0.686432  0.286375  0.289429  1
  Si  Si825  1  0.813724  0.213702  0.289495  1
  Si  Si826  1  0.813908  0.286273  0.378339  1
  Si  Si827  1  0.313570  0.286401  0.289409  1
  Si  Si828  1  0.313763  0.213689  0.378431  1
  Si  Si829  1  0.186389  0.286355  0.378506  1
  Si  Si830  1  0.186547  0.213601  0.289332  1
  Si  Si831  1  0.888140  0.179744  0.247188  1
  Si  Si832  1  0.387857  0.320325  0.247099  1
  Si  Si833  1  0.612787  0.092038  0.420669  1
  Si  Si834  1  0.887515  0.091854  0.247209  1
  Si  Si835  1  0.387204  0.091736  0.420742  1
  Si  Si836  1  0.500052  0.072584  0.350792  1
  Si  Si837  1  0.000000  0.072817  0.317105  1
  Si  Si838  1  0.500015  0.146088  0.323870  1
  Si  Si839  1  -0.000000  0.146283  0.344091  1
  Si  Si840  1  0.499973  0.218771  0.351304  1
  Si  Si841  1  0.500008  0.281185  0.316485  1
  Si  Si842  1  -0.000000  0.218879  0.316489  1
  Si  Si843  1  0.000000  0.281261  0.351328  1
  Si  Si844  1  0.000000  0.000000  0.344669  1
  Si  Si845  1  0.887961  0.320285  0.420682  1
  Si  Si846  1  0.113088  0.091913  0.247088  1
  Si  Si847  1  0.387672  0.179630  0.420753  1
  Si  Si848  1  0.692066  0.572774  0.202759  1
  Si  Si849  1  0.192033  0.427110  0.117865  1
  Si  Si850  1  0.808141  0.572753  0.117787  1
  Si  Si851  1  0.308230  0.427123  0.202671  1
  Si  Si852  1  0.808254  0.427096  0.117847  1
  Si  Si853  1  0.308156  0.572741  0.202749  1
  Si  Si854  1  0.692061  0.427094  0.202671  1
  Si  Si855  1  0.191978  0.572770  0.117746  1
  Si  Si856  1  0.713726  0.644540  0.136976  1
  Si  Si857  1  0.213842  0.355289  0.183566  1
  Si  Si858  1  0.786379  0.644574  0.183584  1
  Si  Si859  1  0.286465  0.355288  0.136954  1
  Si  Si860  1  0.786354  0.355229  0.183584  1
  Si  Si861  1  0.286361  0.644536  0.136937  1
  Si  Si862  1  0.713927  0.355246  0.136951  1
  Si  Si863  1  0.213766  0.644528  0.183551  1
  Si  Si864  1  0.715156  0.500002  0.136718  1
  Si  Si865  1  0.215103  0.500020  0.183803  1
  Si  Si866  1  0.785069  0.500027  0.183827  1
  Si  Si867  1  0.285050  0.500049  0.136697  1
  Si  Si868  1  0.500122  0.572521  0.177183  1
  Si  Si869  1  0.000000  0.427318  0.143400  1
  Si  Si870  1  -0.000000  0.572590  0.143347  1
  Si  Si871  1  0.500142  0.427342  0.177133  1
  Si  Si872  1  0.500020  0.646012  0.150218  1
  Si  Si873  1  0.000000  0.353850  0.170356  1
  Si  Si874  1  -0.000000  0.646078  0.170323  1
  Si  Si875  1  0.500213  0.353868  0.150183  1
  Si  Si876  1  0.500096  0.499970  0.149466  1
  Si  Si877  1  -0.000000  0.499992  0.171031  1
  Si  Si878  1  0.613011  0.407991  0.247075  1
  Si  Si879  1  0.192153  0.572752  0.376392  1
  Si  Si880  1  0.691997  0.427092  0.291493  1
  Si  Si881  1  0.308239  0.572774  0.291490  1
  Si  Si882  1  0.808171  0.427171  0.376356  1
  Si  Si883  1  0.308288  0.427109  0.291515  1
  Si  Si884  1  0.808193  0.572775  0.376413  1
  Si  Si885  1  0.192020  0.427145  0.376412  1
  Si  Si886  1  0.692081  0.572829  0.291457  1
  Si  Si887  1  0.213734  0.644546  0.310652  1
  Si  Si888  1  0.713859  0.355315  0.357248  1
  Si  Si889  1  0.286538  0.644565  0.357240  1
  Si  Si890  1  0.786466  0.355327  0.310632  1
  Si  Si891  1  0.286335  0.355316  0.357290  1
  Si  Si892  1  0.786390  0.644649  0.310623  1
  Si  Si893  1  0.213837  0.355329  0.310665  1
  Si  Si894  1  0.714009  0.644647  0.357255  1
  Si  Si895  1  0.387416  0.408217  0.247088  1
  Si  Si896  1  0.215197  0.499991  0.310404  1
  Si  Si897  1  0.715081  0.500055  0.357471  1
  Si  Si898  1  0.285169  0.499980  0.357507  1
  Si  Si899  1  0.784966  0.500028  0.310359  1
  Si  Si900  1  -0.000000  0.572478  0.350835  1
  Si  Si901  1  0.500174  0.427160  0.317055  1
  Si  Si902  1  0.500200  0.572589  0.317045  1
  Si  Si903  1  -0.000000  0.427464  0.350845  1
  Si  Si904  1  0.000000  0.646025  0.323922  1
  Si  Si905  1  0.500075  0.353764  0.344091  1
  Si  Si906  1  0.500306  0.646061  0.344025  1
  Si  Si907  1  -0.000000  0.353960  0.323924  1
  Si  Si908  1  0.000000  0.499968  0.323084  1
  Si  Si909  1  0.500112  0.499892  0.344646  1
  Si  Si910  1  0.112867  0.592124  0.420727  1
  Si  Si911  1  0.612914  0.592237  0.247107  1
  Si  Si912  1  0.387375  0.591974  0.247114  1
  Si  Si913  1  0.691924  0.927159  0.117893  1
  Si  Si914  1  0.808207  0.927189  0.202568  1
  Si  Si915  1  0.308061  0.927196  0.117775  1
  Si  Si916  1  0.192118  0.927181  0.202759  1
  Si  Si917  1  0.713720  0.855297  0.183534  1
  Si  Si918  1  0.786416  0.855292  0.136927  1
  Si  Si919  1  0.286266  0.855347  0.183588  1
  Si  Si920  1  0.213848  0.855369  0.136960  1
  Si  Si921  1  0.686196  0.713625  0.204679  1
  Si  Si922  1  0.686271  0.786251  0.115813  1
  Si  Si923  1  0.813700  0.713652  0.115922  1
  Si  Si924  1  0.813806  0.786168  0.204552  1
  Si  Si925  1  0.313491  0.786343  0.115759  1
  Si  Si926  1  0.313395  0.713571  0.204731  1
  Si  Si927  1  0.186423  0.786385  0.204834  1
  Si  Si928  1  0.186660  0.713481  0.115651  1
  Si  Si929  1  0.285079  0.000000  0.183818  1
  Si  Si930  1  0.887087  0.907958  0.246956  1
  Si  Si931  1  0.499890  0.927402  0.143387  1
  Si  Si932  1  0.000000  0.927481  0.177117  1
  Si  Si933  1  0.499942  0.853899  0.170331  1
  Si  Si934  1  -0.000000  0.853967  0.150190  1
  Si  Si935  1  0.499776  0.718762  0.177644  1
  Si  Si936  1  0.499840  0.781225  0.142853  1
  Si  Si937  1  0.000000  0.718779  0.142828  1
  Si  Si938  1  -0.000000  0.781251  0.177608  1
  Si  Si939  1  0.215134  0.000000  0.136713  1
  Si  Si940  1  0.888050  0.820062  0.246912  1
  Si  Si941  1  0.191992  0.927206  0.291436  1
  Si  Si942  1  0.308148  0.927228  0.376430  1
  Si  Si943  1  0.808234  0.927168  0.291371  1
  Si  Si944  1  0.692023  0.927172  0.376469  1
  Si  Si945  1  0.213675  0.855479  0.357223  1
  Si  Si946  1  0.286542  0.855484  0.310639  1
  Si  Si947  1  0.786273  0.855384  0.357244  1
  Si  Si948  1  0.713891  0.855412  0.310613  1
  Si  Si949  1  0.186572  0.713781  0.378205  1
  Si  Si950  1  0.186700  0.786303  0.289618  1
  Si  Si951  1  0.313708  0.713538  0.289488  1
  Si  Si952  1  0.313739  0.786483  0.378364  1
  Si  Si953  1  0.813710  0.786526  0.289307  1
  Si  Si954  1  0.813842  0.713600  0.378510  1
  Si  Si955  1  0.686524  0.786282  0.378372  1
  Si  Si956  1  0.686669  0.713755  0.289482  1
  Si  Si957  1  0.611647  0.680140  0.247116  1
  Si  Si958  1  0.112068  0.819963  0.247233  1
  Si  Si959  1  0.785040  0.000000  0.357485  1
  Si  Si960  1  0.387625  0.679863  0.247097  1
  Si  Si961  1  0.215004  0.000000  0.357470  1
  Si  Si962  1  0.715161  0.000000  0.310376  1
  Si  Si963  1  0.285004  0.000000  0.310369  1
  Si  Si964  1  -0.000000  0.927437  0.316994  1
  Si  Si965  1  0.500139  0.927482  0.350872  1
  Si  Si966  1  0.000000  0.853973  0.343986  1
  Si  Si967  1  0.500256  0.853998  0.323906  1
  Si  Si968  1  0.000000  0.718812  0.351291  1
  Si  Si969  1  -0.000000  0.781270  0.316502  1
  Si  Si970  1  0.500256  0.718748  0.316535  1
  Si  Si971  1  0.500200  0.781240  0.351308  1
  Si  Si972  1  0.500082  0.000000  0.323111  1
  Si  Si973  1  0.112215  0.680024  0.420595  1
  Si  Si974  1  0.112637  0.907859  0.247097  1
  Si  Si975  1  0.191929  0.072817  0.550020  1
  Si  Si976  1  0.308391  0.072814  0.465190  1
  Si  Si977  1  0.808151  0.072818  0.550170  1
  Si  Si978  1  0.692125  0.072842  0.465038  1
  Si  Si979  1  0.213764  0.144579  0.484320  1
  Si  Si980  1  0.286553  0.144597  0.530915  1
  Si  Si981  1  0.786350  0.144605  0.484280  1
  Si  Si982  1  0.714002  0.144602  0.530914  1
  Si  Si983  1  0.186633  0.213704  0.551979  1
  Si  Si984  1  0.186523  0.286206  0.463210  1
  Si  Si985  1  0.313694  0.213494  0.463098  1
  Si  Si986  1  0.313953  0.286365  0.552109  1
  Si  Si987  1  0.813813  0.286375  0.463009  1
  Si  Si988  1  0.813899  0.213495  0.552180  1
  Si  Si989  1  0.686491  0.286157  0.552066  1
  Si  Si990  1  0.686591  0.213657  0.463120  1
  Si  Si991  1  0.112153  0.179824  0.594331  1
  Si  Si992  1  0.111960  0.320127  0.420875  1
  Si  Si993  1  0.611675  0.179941  0.420766  1
  Si  Si994  1  0.785017  0.000000  0.484030  1
  Si  Si995  1  -0.000000  0.072655  0.524529  1
  Si  Si996  1  0.500399  0.072679  0.490686  1
  Si  Si997  1  0.000000  0.146116  0.497541  1
  Si  Si998  1  0.500309  0.146126  0.517688  1
  Si  Si999  1  -0.000000  0.218829  0.525008  1
  Si  Si1000  1  0.000000  0.281234  0.490188  1
  Si  Si1001  1  0.500176  0.218793  0.490165  1
  Si  Si1002  1  0.500210  0.281197  0.524990  1
  Si  Si1003  1  0.000000  0.000000  0.496803  1
  Si  Si1004  1  0.500089  0.000000  0.518369  1
  Si  Si1005  1  0.715124  0.000000  0.531138  1
  Si  Si1006  1  0.611867  0.320080  0.594403  1
  Si  Si1007  1  0.692049  0.072825  0.723652  1
  Si  Si1008  1  0.808183  0.072840  0.638945  1
  Si  Si1009  1  0.308113  0.072821  0.723678  1
  Si  Si1010  1  0.191925  0.072867  0.638872  1
  Si  Si1011  1  0.713754  0.144706  0.658000  1
  Si  Si1012  1  0.786352  0.144729  0.704624  1
  Si  Si1013  1  0.286310  0.144689  0.657972  1
  Si  Si1014  1  0.213861  0.144714  0.704604  1
  Si  Si1015  1  0.686188  0.213749  0.725752  1
  Si  Si1016  1  0.686432  0.286375  0.636781  1
  Si  Si1017  1  0.813724  0.213702  0.636846  1
  Si  Si1018  1  0.813908  0.286273  0.725690  1
  Si  Si1019  1  0.313570  0.286401  0.636760  1
  Si  Si1020  1  0.313763  0.213689  0.725783  1
  Si  Si1021  1  0.186389  0.286355  0.725858  1
  Si  Si1022  1  0.186547  0.213601  0.636683  1
  Si  Si1023  1  0.888140  0.179744  0.594540  1
  Si  Si1024  1  0.387857  0.320325  0.594450  1
  Si  Si1025  1  0.887515  0.091854  0.594560  1
  Si  Si1026  1  0.500052  0.072584  0.698144  1
  Si  Si1027  1  -0.000000  0.072817  0.664457  1
  Si  Si1028  1  0.500015  0.146088  0.671222  1
  Si  Si1029  1  0.000000  0.146283  0.691442  1
  Si  Si1030  1  0.499973  0.218771  0.698656  1
  Si  Si1031  1  0.500008  0.281185  0.663836  1
  Si  Si1032  1  -0.000000  0.218879  0.663840  1
  Si  Si1033  1  0.000000  0.281261  0.698679  1
  Si  Si1034  1  0.000000  0.000000  0.692020  1
  Si  Si1035  1  0.113088  0.091913  0.594440  1
  Si  Si1036  1  0.692066  0.572774  0.550111  1
  Si  Si1037  1  0.192033  0.427110  0.465216  1
  Si  Si1038  1  0.808141  0.572753  0.465138  1
  Si  Si1039  1  0.308230  0.427123  0.550022  1
  Si  Si1040  1  0.808254  0.427096  0.465198  1
  Si  Si1041  1  0.308156  0.572741  0.550100  1
  Si  Si1042  1  0.692061  0.427094  0.550022  1
  Si  Si1043  1  0.191978  0.572770  0.465097  1
  Si  Si1044  1  0.713726  0.644540  0.484327  1
  Si  Si1045  1  0.213842  0.355289  0.530918  1
  Si  Si1046  1  0.786379  0.644574  0.530935  1
  Si  Si1047  1  0.286465  0.355288  0.484305  1
  Si  Si1048  1  0.786354  0.355229  0.530936  1
  Si  Si1049  1  0.286361  0.644536  0.484289  1
  Si  Si1050  1  0.713927  0.355246  0.484303  1
  Si  Si1051  1  0.213766  0.644528  0.530902  1
  Si  Si1052  1  0.112904  0.408032  0.420817  1
  Si  Si1053  1  0.887323  0.592089  0.420783  1
  Si  Si1054  1  0.715156  0.500002  0.484069  1
  Si  Si1055  1  0.215103  0.500020  0.531155  1
  Si  Si1056  1  0.785069  0.500027  0.531178  1
  Si  Si1057  1  0.285050  0.500049  0.484048  1
  Si  Si1058  1  0.500122  0.572521  0.524535  1
  Si  Si1059  1  0.000000  0.427318  0.490751  1
  Si  Si1060  1  0.000000  0.572590  0.490699  1
  Si  Si1061  1  0.500142  0.427342  0.524484  1
  Si  Si1062  1  0.500020  0.646012  0.497569  1
  Si  Si1063  1  -0.000000  0.353850  0.517708  1
  Si  Si1064  1  -0.000000  0.646078  0.517674  1
  Si  Si1065  1  0.500213  0.353868  0.497534  1
  Si  Si1066  1  0.500096  0.499970  0.496818  1
  Si  Si1067  1  0.000000  0.499992  0.518383  1
  Si  Si1068  1  0.887301  0.408179  0.420765  1
  Si  Si1069  1  0.613011  0.407991  0.594426  1
  Si  Si1070  1  0.192153  0.572752  0.723744  1
  Si  Si1071  1  0.691997  0.427092  0.638845  1
  Si  Si1072  1  0.308239  0.572774  0.638841  1
  Si  Si1073  1  0.808171  0.427171  0.723707  1
  Si  Si1074  1  0.308288  0.427109  0.638866  1
  Si  Si1075  1  0.808193  0.572775  0.723764  1
  Si  Si1076  1  0.192020  0.427145  0.723763  1
  Si  Si1077  1  0.692081  0.572829  0.638808  1
  Si  Si1078  1  0.213734  0.644546  0.658004  1
  Si  Si1079  1  0.713859  0.355315  0.704599  1
  Si  Si1080  1  0.286538  0.644565  0.704591  1
  Si  Si1081  1  0.786466  0.355327  0.657983  1
  Si  Si1082  1  0.286335  0.355316  0.704642  1
  Si  Si1083  1  0.786390  0.644649  0.657974  1
  Si  Si1084  1  0.213837  0.355329  0.658016  1
  Si  Si1085  1  0.714009  0.644647  0.704607  1
  Si  Si1086  1  0.387416  0.408217  0.594440  1
  Si  Si1087  1  0.215197  0.499991  0.657755  1
  Si  Si1088  1  0.715081  0.500055  0.704822  1
  Si  Si1089  1  0.285169  0.499980  0.704859  1
  Si  Si1090  1  0.784966  0.500028  0.657710  1
  Si  Si1091  1  -0.000000  0.572478  0.698187  1
  Si  Si1092  1  0.500174  0.427160  0.664407  1
  Si  Si1093  1  0.500200  0.572589  0.664397  1
  Si  Si1094  1  -0.000000  0.427464  0.698197  1
  Si  Si1095  1  -0.000000  0.646025  0.671273  1
  Si  Si1096  1  0.500075  0.353764  0.691442  1
  Si  Si1097  1  0.500306  0.646061  0.691376  1
  Si  Si1098  1  0.000000  0.353960  0.671275  1
  Si  Si1099  1  -0.000000  0.499968  0.670435  1
  Si  Si1100  1  0.500112  0.499892  0.691997  1
  Si  Si1101  1  0.612914  0.592237  0.594458  1
  Si  Si1102  1  0.387375  0.591974  0.594465  1
  Si  Si1103  1  0.691924  0.927159  0.465245  1
  Si  Si1104  1  0.808207  0.927189  0.549919  1
  Si  Si1105  1  0.308061  0.927196  0.465126  1
  Si  Si1106  1  0.192118  0.927181  0.550111  1
  Si  Si1107  1  0.713720  0.855297  0.530885  1
  Si  Si1108  1  0.786416  0.855292  0.484278  1
  Si  Si1109  1  0.286266  0.855347  0.530940  1
  Si  Si1110  1  0.213848  0.855369  0.484311  1
  Si  Si1111  1  0.686196  0.713625  0.552031  1
  Si  Si1112  1  0.686271  0.786251  0.463164  1
  Si  Si1113  1  0.813700  0.713652  0.463273  1
  Si  Si1114  1  0.813806  0.786168  0.551903  1
  Si  Si1115  1  0.313491  0.786343  0.463110  1
  Si  Si1116  1  0.313395  0.713571  0.552082  1
  Si  Si1117  1  0.186423  0.786385  0.552185  1
  Si  Si1118  1  0.186660  0.713481  0.463002  1
  Si  Si1119  1  0.285079  0.000000  0.531169  1
  Si  Si1120  1  0.611777  0.819910  0.420767  1
  Si  Si1121  1  0.887087  0.907958  0.594307  1
  Si  Si1122  1  0.387570  0.908004  0.420783  1
  Si  Si1123  1  0.499890  0.927402  0.490738  1
  Si  Si1124  1  -0.000000  0.927481  0.524468  1
  Si  Si1125  1  0.499942  0.853899  0.517683  1
  Si  Si1126  1  0.000000  0.853967  0.497542  1
  Si  Si1127  1  0.499776  0.718762  0.524995  1
  Si  Si1128  1  0.499840  0.781225  0.490205  1
  Si  Si1129  1  -0.000000  0.718779  0.490180  1
  Si  Si1130  1  -0.000000  0.781251  0.524960  1
  Si  Si1131  1  0.215134  0.000000  0.484064  1
  Si  Si1132  1  0.888199  0.679978  0.420890  1
  Si  Si1133  1  0.888050  0.820062  0.594263  1
  Si  Si1134  1  0.387758  0.820120  0.420765  1
  Si  Si1135  1  0.613123  0.907820  0.420853  1
  Si  Si1136  1  0.191992  0.927206  0.638788  1
  Si  Si1137  1  0.308148  0.927228  0.723781  1
  Si  Si1138  1  0.808234  0.927168  0.638723  1
  Si  Si1139  1  0.692023  0.927172  0.723820  1
  Si  Si1140  1  0.213675  0.855479  0.704575  1
  Si  Si1141  1  0.286542  0.855484  0.657990  1
  Si  Si1142  1  0.786273  0.855384  0.704595  1
  Si  Si1143  1  0.713891  0.855412  0.657965  1
  Si  Si1144  1  0.186572  0.713781  0.725556  1
  Si  Si1145  1  0.186700  0.786303  0.636969  1
  Si  Si1146  1  0.313708  0.713538  0.636840  1
  Si  Si1147  1  0.313739  0.786483  0.725715  1
  Si  Si1148  1  0.813710  0.786526  0.636659  1
  Si  Si1149  1  0.813842  0.713600  0.725862  1
  Si  Si1150  1  0.686524  0.786282  0.725723  1
  Si  Si1151  1  0.686669  0.713755  0.636834  1
  Si  Si1152  1  0.611647  0.680140  0.594468  1
  Si  Si1153  1  0.112068  0.819963  0.594584  1
  Si  Si1154  1  0.785040  0.000000  0.704836  1
  Si  Si1155  1  0.387625  0.679863  0.594449  1
  Si  Si1156  1  0.215004  0.000000  0.704821  1
  Si  Si1157  1  0.715161  0.000000  0.657727  1
  Si  Si1158  1  0.285004  0.000000  0.657720  1
  Si  Si1159  1  -0.000000  0.927437  0.664346  1
  Si  Si1160  1  0.500139  0.927482  0.698223  1
  Si  Si1161  1  0.000000  0.853973  0.691337  1
  Si  Si1162  1  0.500256  0.853998  0.671257  1
  Si  Si1163  1  -0.000000  0.718812  0.698642  1
  Si  Si1164  1  -0.000000  0.781270  0.663853  1
  Si  Si1165  1  0.500256  0.718748  0.663887  1
  Si  Si1166  1  0.500200  0.781240  0.698660  1
  Si  Si1167  1  0.500082  0.000000  0.670462  1
  Si  Si1168  1  0.112637  0.907859  0.594448  1
  H  H1169  1  0.337336  0.075175  0.079538  1
  H  H1170  1  0.662895  0.075557  0.079433  1
  H  H1171  1  0.155677  0.302127  0.079625  1
  H  H1172  1  0.342762  0.197341  0.079455  1
  H  H1173  1  0.842966  0.302469  0.079352  1
  H  H1174  1  0.656010  0.197730  0.079515  1
  H  H1175  1  0.162887  0.424679  0.079579  1
  H  H1176  1  0.837358  0.575460  0.079528  1
  H  H1177  1  0.837230  0.424698  0.079549  1
  H  H1178  1  0.162893  0.575599  0.079488  1
  H  H1179  1  0.663045  0.924538  0.079601  1
  H  H1180  1  0.337458  0.924567  0.079526  1
  H  H1181  1  0.655591  0.801959  0.079521  1
  H  H1182  1  0.844398  0.697752  0.079683  1
  H  H1183  1  0.342941  0.802278  0.079442  1
  H  H1184  1  0.157550  0.697716  0.079267  1
  H  H1185  1  0.662906  0.075358  0.761933  1
  H  H1186  1  0.337131  0.075142  0.761977  1
  H  H1187  1  0.655275  0.197923  0.762001  1
  H  H1188  1  0.844323  0.302419  0.761895  1
  H  H1189  1  0.343509  0.197519  0.762025  1
  H  H1190  1  0.156306  0.302314  0.762135  1
  H  H1191  1  0.162785  0.575422  0.761995  1
  H  H1192  1  0.837301  0.424814  0.761999  1
  H  H1193  1  0.837246  0.575551  0.762029  1
  H  H1194  1  0.163007  0.424585  0.762049  1
  H  H1195  1  0.337601  0.924575  0.762026  1
  H  H1196  1  0.663136  0.924365  0.762093  1
  H  H1197  1  0.155533  0.697923  0.761784  1
  H  H1198  1  0.343161  0.802490  0.762014  1
  H  H1199  1  0.843246  0.697726  0.762199  1
  H  H1200  1  0.655776  0.802126  0.761984  1
