# generated using pymatgen
data_Si35H2O71
_symmetry_space_group_name_H-M   'P 1'
_cell_length_a   13.80613488
_cell_length_b   20.14838188
_cell_length_c   80.04628428
_cell_angle_alpha   90.00000000
_cell_angle_beta   90.00000000
_cell_angle_gamma   90.00000000
_symmetry_Int_Tables_number   1
_chemical_formula_structural   Si35H2O71
_chemical_formula_sum   'Si280 H16 O568'
_cell_volume   22266.5771857
_cell_formula_units_Z   8
loop_
 _symmetry_equiv_pos_site_id
 _symmetry_equiv_pos_as_xyz
  1  'x, y, z'
loop_
 _atom_site_type_symbol
 _atom_site_label
 _atom_site_symmetry_multiplicity
 _atom_site_fract_x
 _atom_site_fract_y
 _atom_site_fract_z
 _atom_site_occupancy
  O  O1  1  0.759298  0.627433  0.268685  1
  O  O2  1  0.240481  0.627458  0.268667  1
  O  O3  1  0.599935  0.574632  0.280653  1
  O  O4  1  0.399960  0.574819  0.280642  1
  O  O5  1  0.249558  -0.000000  0.262105  1
  O  O6  1  0.843775  0.913027  0.212784  1
  O  O7  1  0.155483  0.913392  0.212683  1
  O  O8  1  0.843780  0.913303  0.245443  1
  O  O9  1  0.156296  0.913154  0.245361  1
  O  O10  1  0.906983  0.951865  0.273648  1
  O  O11  1  0.092237  0.951408  0.273526  1
  O  O12  1  0.757590  0.880867  0.272273  1
  O  O13  1  0.242222  0.880895  0.272256  1
  O  O14  1  0.598916  0.823224  0.281257  1
  O  O15  1  0.400950  0.823243  0.281250  1
  O  O16  1  0.745619  0.754387  0.270482  1
  O  O17  1  0.254291  0.754403  0.270461  1
  O  O18  1  0.836562  0.703425  0.213087  1
  O  O19  1  0.163363  0.703387  0.213069  1
  O  O20  1  0.836460  0.703367  0.245186  1
  O  O21  1  0.163481  0.703549  0.245165  1
  O  O22  1  0.907266  0.699447  0.273464  1
  O  O23  1  0.092577  0.699532  0.273445  1
  O  O24  1  -0.000000  0.751239  0.297071  1
  O  O25  1  -0.000000  0.625252  0.293515  1
  O  O26  1  0.000000  0.876736  0.293083  1
  O  O27  1  0.875227  0.807735  0.229154  1
  O  O28  1  0.124676  0.807805  0.229052  1
  O  O29  1  0.000000  0.896438  0.229117  1
  O  O30  1  -0.000000  0.717546  0.229140  1
  O  O31  1  0.749422  0.000000  0.262110  1
  O  O32  1  -0.000000  0.501087  0.298072  1
  O  O33  1  0.249910  0.499890  0.276093  1
  O  O34  1  0.740184  0.372379  0.268643  1
  O  O35  1  0.259642  0.372393  0.268665  1
  O  O36  1  0.899976  0.423985  0.280641  1
  O  O37  1  0.099936  0.424111  0.280646  1
  O  O38  1  0.499950  0.250100  0.297240  1
  O  O39  1  0.656733  0.086754  0.245309  1
  O  O40  1  0.344424  0.086550  0.245578  1
  O  O41  1  0.655353  0.086502  0.212640  1
  O  O42  1  0.343349  0.086781  0.212907  1
  O  O43  1  0.592018  0.048768  0.273420  1
  O  O44  1  0.406603  0.047575  0.273875  1
  O  O45  1  0.742477  0.118887  0.272241  1
  O  O46  1  0.257369  0.118836  0.272318  1
  O  O47  1  0.901024  0.176810  0.281294  1
  O  O48  1  0.098814  0.176806  0.281311  1
  O  O49  1  0.749814  0.188374  0.298587  1
  O  O50  1  0.754355  0.245389  0.270437  1
  O  O51  1  0.245541  0.245356  0.270433  1
  O  O52  1  0.663519  0.296268  0.245123  1
  O  O53  1  0.336488  0.296539  0.245143  1
  O  O54  1  0.663366  0.296536  0.213036  1
  O  O55  1  0.336484  0.296292  0.213056  1
  O  O56  1  0.592584  0.300217  0.273399  1
  O  O57  1  0.407258  0.300249  0.273424  1
  O  O58  1  0.500020  0.376298  0.293113  1
  O  O59  1  0.499848  0.124563  0.292802  1
  O  O60  1  -0.000000  0.001665  0.298247  1
  O  O61  1  0.624663  0.192064  0.229007  1
  O  O62  1  0.375275  0.192084  0.229188  1
  O  O63  1  0.499966  0.103378  0.229129  1
  O  O64  1  0.499967  0.282329  0.229098  1
  O  O65  1  0.750106  0.499860  0.276094  1
  O  O66  1  0.749945  0.413090  0.298588  1
  O  O67  1  0.759724  0.627494  0.189565  1
  O  O68  1  0.240267  0.627517  0.189550  1
  O  O69  1  0.259281  0.627529  0.129670  1
  O  O70  1  0.740769  0.627540  0.129693  1
  O  O71  1  0.600006  0.575846  0.177575  1
  O  O72  1  0.399978  0.575843  0.177573  1
  O  O73  1  0.099939  0.574822  0.141692  1
  O  O74  1  0.900091  0.574799  0.141697  1
  O  O75  1  0.750052  0.586759  0.159632  1
  O  O76  1  0.249978  0.586772  0.159620  1
  O  O77  1  0.749987  0.500010  0.137127  1
  O  O78  1  0.750571  -0.000000  0.123135  1
  O  O79  1  0.907749  0.951663  0.184663  1
  O  O80  1  0.093295  0.952537  0.184401  1
  O  O81  1  0.407918  0.951228  0.134447  1
  O  O82  1  0.593314  0.952426  0.134898  1
  O  O83  1  0.757620  0.881013  0.185905  1
  O  O84  1  0.242370  0.881024  0.185921  1
  O  O85  1  0.257656  0.880970  0.133272  1
  O  O86  1  0.742317  0.881010  0.133346  1
  O  O87  1  0.598888  0.823057  0.176935  1
  O  O88  1  0.401074  0.823118  0.176933  1
  O  O89  1  0.098992  0.823253  0.142261  1
  O  O90  1  0.901062  0.823317  0.142279  1
  O  O91  1  0.750034  0.811312  0.159625  1
  O  O92  1  0.250011  0.811493  0.159611  1
  O  O93  1  0.745655  0.754500  0.187801  1
  O  O94  1  0.254305  0.754531  0.187779  1
  O  O95  1  0.245702  0.754472  0.131458  1
  O  O96  1  0.754368  0.754523  0.131439  1
  O  O97  1  0.907356  0.699592  0.184791  1
  O  O98  1  0.092630  0.699608  0.184777  1
  O  O99  1  0.407335  0.699387  0.134413  1
  O  O100  1  0.592764  0.699446  0.134451  1
  O  O101  1  0.000000  0.750502  0.161050  1
  O  O102  1  0.499898  0.749689  0.158242  1
  O  O103  1  -0.000000  0.624666  0.164824  1
  O  O104  1  0.499989  0.623506  0.154155  1
  O  O105  1  -0.000000  0.500635  0.160045  1
  O  O106  1  -0.000000  0.875785  0.165386  1
  O  O107  1  0.500080  0.875194  0.153779  1
  O  O108  1  0.249998  0.500005  0.137127  1
  O  O109  1  0.496845  -0.000000  0.159735  1
  O  O110  1  0.249980  0.500008  0.182127  1
  O  O111  1  0.250579  0.000000  0.196134  1
  O  O112  1  0.997818  -0.000000  0.159478  1
  O  O113  1  0.750400  0.000000  0.196117  1
  O  O114  1  0.499992  0.499103  0.160090  1
  O  O115  1  0.240687  0.372455  0.129698  1
  O  O116  1  0.759280  0.372466  0.129682  1
  O  O117  1  0.740250  0.372458  0.189535  1
  O  O118  1  0.259798  0.372482  0.189558  1
  O  O119  1  0.400060  0.425172  0.141688  1
  O  O120  1  0.599922  0.425172  0.141685  1
  O  O121  1  0.899990  0.424137  0.177580  1
  O  O122  1  0.100032  0.424112  0.177584  1
  O  O123  1  0.250046  0.413254  0.159631  1
  O  O124  1  0.749979  0.413256  0.159619  1
  O  O125  1  0.093172  0.047890  0.134760  1
  O  O126  1  0.907901  0.048789  0.134493  1
  O  O127  1  0.593292  0.047478  0.184348  1
  O  O128  1  0.407916  0.048707  0.184796  1
  O  O129  1  0.242375  0.118979  0.133254  1
  O  O130  1  0.757598  0.118971  0.133267  1
  O  O131  1  0.742420  0.118893  0.185908  1
  O  O132  1  0.257527  0.118958  0.185984  1
  O  O133  1  0.400993  0.176614  0.142239  1
  O  O134  1  0.598944  0.176659  0.142234  1
  O  O135  1  0.901091  0.176785  0.176945  1
  O  O136  1  0.098927  0.176863  0.176965  1
  O  O137  1  0.250018  0.188268  0.159619  1
  O  O138  1  0.749997  0.188423  0.159603  1
  O  O139  1  0.254305  0.245478  0.131485  1
  O  O140  1  0.745632  0.245496  0.131463  1
  O  O141  1  0.754340  0.245418  0.187760  1
  O  O142  1  0.245687  0.245487  0.187746  1
  O  O143  1  0.092685  0.300499  0.134455  1
  O  O144  1  0.907276  0.300514  0.134440  1
  O  O145  1  0.592656  0.300286  0.184746  1
  O  O146  1  0.407406  0.300335  0.184777  1
  O  O147  1  -0.000000  0.249881  0.158204  1
  O  O148  1  0.499910  0.249058  0.161080  1
  O  O149  1  -0.000000  0.376164  0.154206  1
  O  O150  1  0.499986  0.374993  0.164765  1
  O  O151  1  -0.000000  0.124231  0.153909  1
  O  O152  1  0.500069  0.123633  0.165242  1
  O  O153  1  0.250455  0.000000  0.123112  1
  O  O154  1  0.749989  0.499993  0.182128  1
  O  O155  1  0.343274  0.913056  0.106333  1
  O  O156  1  0.655443  0.913338  0.106600  1
  O  O157  1  0.336395  0.703509  0.106146  1
  O  O158  1  0.663445  0.703245  0.106165  1
  O  O159  1  0.155835  0.086443  0.106469  1
  O  O160  1  0.843403  0.086788  0.106364  1
  O  O161  1  0.155857  0.086764  0.073791  1
  O  O162  1  0.844216  0.086610  0.073707  1
  O  O163  1  0.163505  0.296523  0.106190  1
  O  O164  1  0.836388  0.296459  0.106171  1
  O  O165  1  0.163402  0.296419  0.074111  1
  O  O166  1  0.836515  0.296573  0.074089  1
  O  O167  1  0.124668  0.192094  0.090177  1
  O  O168  1  0.875206  0.192168  0.090076  1
  O  O169  1  -0.000000  0.103458  0.090132  1
  O  O170  1  -0.000000  0.282378  0.090153  1
  O  O171  1  0.759298  0.627433  0.546646  1
  O  O172  1  0.240481  0.627458  0.546628  1
  O  O173  1  0.599935  0.574632  0.558614  1
  O  O174  1  0.399960  0.574819  0.558603  1
  O  O175  1  0.249558  0.000000  0.540066  1
  O  O176  1  0.843775  0.913027  0.490745  1
  O  O177  1  0.155483  0.913392  0.490643  1
  O  O178  1  0.843780  0.913303  0.523404  1
  O  O179  1  0.156296  0.913154  0.523322  1
  O  O180  1  0.906983  0.951865  0.551609  1
  O  O181  1  0.092237  0.951408  0.551487  1
  O  O182  1  0.757590  0.880867  0.550234  1
  O  O183  1  0.242222  0.880895  0.550217  1
  O  O184  1  0.598916  0.823224  0.559218  1
  O  O185  1  0.400950  0.823243  0.559211  1
  O  O186  1  0.745619  0.754387  0.548443  1
  O  O187  1  0.254291  0.754403  0.548422  1
  O  O188  1  0.836562  0.703425  0.491048  1
  O  O189  1  0.163363  0.703387  0.491030  1
  O  O190  1  0.836460  0.703367  0.523147  1
  O  O191  1  0.163481  0.703549  0.523126  1
  O  O192  1  0.907266  0.699447  0.551425  1
  O  O193  1  0.092577  0.699532  0.551405  1
  O  O194  1  0.000000  0.751239  0.575032  1
  O  O195  1  -0.000000  0.625252  0.571476  1
  O  O196  1  0.000000  0.876736  0.571044  1
  O  O197  1  0.875227  0.807735  0.507115  1
  O  O198  1  0.124676  0.807805  0.507013  1
  O  O199  1  -0.000000  0.896438  0.507078  1
  O  O200  1  -0.000000  0.717546  0.507100  1
  O  O201  1  0.749422  0.000000  0.540071  1
  O  O202  1  -0.000000  0.501087  0.576033  1
  O  O203  1  0.249910  0.499890  0.554054  1
  O  O204  1  0.740184  0.372379  0.546604  1
  O  O205  1  0.259642  0.372393  0.546626  1
  O  O206  1  0.899976  0.423985  0.558602  1
  O  O207  1  0.099936  0.424111  0.558607  1
  O  O208  1  0.499950  0.250100  0.575201  1
  O  O209  1  0.656733  0.086754  0.523270  1
  O  O210  1  0.344424  0.086550  0.523539  1
  O  O211  1  0.655353  0.086502  0.490601  1
  O  O212  1  0.343349  0.086781  0.490868  1
  O  O213  1  0.592018  0.048768  0.551381  1
  O  O214  1  0.406603  0.047575  0.551835  1
  O  O215  1  0.742477  0.118887  0.550202  1
  O  O216  1  0.257369  0.118836  0.550279  1
  O  O217  1  0.901024  0.176810  0.559255  1
  O  O218  1  0.098814  0.176806  0.559271  1
  O  O219  1  0.749814  0.188374  0.576548  1
  O  O220  1  0.754355  0.245389  0.548398  1
  O  O221  1  0.245541  0.245356  0.548394  1
  O  O222  1  0.663519  0.296268  0.523084  1
  O  O223  1  0.336488  0.296539  0.523104  1
  O  O224  1  0.663366  0.296536  0.490997  1
  O  O225  1  0.336484  0.296292  0.491017  1
  O  O226  1  0.592584  0.300217  0.551360  1
  O  O227  1  0.407258  0.300249  0.551385  1
  O  O228  1  0.500020  0.376298  0.571074  1
  O  O229  1  0.499848  0.124563  0.570763  1
  O  O230  1  -0.000000  0.001665  0.576208  1
  O  O231  1  0.624663  0.192064  0.506968  1
  O  O232  1  0.375275  0.192084  0.507149  1
  O  O233  1  0.499966  0.103378  0.507090  1
  O  O234  1  0.499967  0.282329  0.507059  1
  O  O235  1  0.750106  0.499860  0.554055  1
  O  O236  1  0.749945  0.413090  0.576549  1
  O  O237  1  0.759724  0.627494  0.467526  1
  O  O238  1  0.240267  0.627517  0.467511  1
  O  O239  1  0.259281  0.627529  0.407631  1
  O  O240  1  0.740769  0.627540  0.407654  1
  O  O241  1  0.600006  0.575846  0.455536  1
  O  O242  1  0.399978  0.575843  0.455534  1
  O  O243  1  0.099939  0.574822  0.419653  1
  O  O244  1  0.900091  0.574799  0.419658  1
  O  O245  1  0.750052  0.586759  0.437593  1
  O  O246  1  0.249978  0.586772  0.437580  1
  O  O247  1  0.749987  0.500010  0.415088  1
  O  O248  1  0.750571  0.000000  0.401096  1
  O  O249  1  0.907749  0.951663  0.462624  1
  O  O250  1  0.093295  0.952537  0.462362  1
  O  O251  1  0.407918  0.951228  0.412408  1
  O  O252  1  0.593314  0.952426  0.412859  1
  O  O253  1  0.757620  0.881013  0.463866  1
  O  O254  1  0.242370  0.881024  0.463882  1
  O  O255  1  0.257656  0.880970  0.411233  1
  O  O256  1  0.742317  0.881010  0.411306  1
  O  O257  1  0.598888  0.823057  0.454896  1
  O  O258  1  0.401074  0.823118  0.454894  1
  O  O259  1  0.098992  0.823253  0.420222  1
  O  O260  1  0.901062  0.823317  0.420240  1
  O  O261  1  0.750034  0.811312  0.437585  1
  O  O262  1  0.250011  0.811493  0.437572  1
  O  O263  1  0.745655  0.754500  0.465762  1
  O  O264  1  0.254305  0.754531  0.465740  1
  O  O265  1  0.245702  0.754472  0.409419  1
  O  O266  1  0.754368  0.754523  0.409400  1
  O  O267  1  0.907356  0.699592  0.462752  1
  O  O268  1  0.092630  0.699608  0.462738  1
  O  O269  1  0.407335  0.699387  0.412374  1
  O  O270  1  0.592764  0.699446  0.412412  1
  O  O271  1  0.000000  0.750502  0.439011  1
  O  O272  1  0.499898  0.749689  0.436203  1
  O  O273  1  -0.000000  0.624666  0.442785  1
  O  O274  1  0.499989  0.623506  0.432116  1
  O  O275  1  0.000000  0.500635  0.438006  1
  O  O276  1  -0.000000  0.875785  0.443347  1
  O  O277  1  0.500080  0.875194  0.431740  1
  O  O278  1  0.249998  0.500005  0.415088  1
  O  O279  1  0.496845  0.000000  0.437696  1
  O  O280  1  0.249980  0.500008  0.460088  1
  O  O281  1  0.250579  0.000000  0.474095  1
  O  O282  1  0.997818  0.000000  0.437439  1
  O  O283  1  0.750400  -0.000000  0.474078  1
  O  O284  1  0.499992  0.499103  0.438051  1
  O  O285  1  0.240687  0.372455  0.407659  1
  O  O286  1  0.759280  0.372466  0.407643  1
  O  O287  1  0.740250  0.372458  0.467495  1
  O  O288  1  0.259798  0.372482  0.467519  1
  O  O289  1  0.400060  0.425172  0.419649  1
  O  O290  1  0.599922  0.425172  0.419646  1
  O  O291  1  0.899990  0.424137  0.455541  1
  O  O292  1  0.100032  0.424112  0.455545  1
  O  O293  1  0.250046  0.413254  0.437592  1
  O  O294  1  0.749979  0.413256  0.437580  1
  O  O295  1  0.093172  0.047890  0.412721  1
  O  O296  1  0.907901  0.048789  0.412454  1
  O  O297  1  0.593292  0.047478  0.462309  1
  O  O298  1  0.407916  0.048707  0.462757  1
  O  O299  1  0.242375  0.118979  0.411215  1
  O  O300  1  0.757598  0.118971  0.411228  1
  O  O301  1  0.742420  0.118893  0.463869  1
  O  O302  1  0.257527  0.118958  0.463945  1
  O  O303  1  0.400993  0.176614  0.420200  1
  O  O304  1  0.598944  0.176659  0.420195  1
  O  O305  1  0.901091  0.176785  0.454906  1
  O  O306  1  0.098927  0.176863  0.454926  1
  O  O307  1  0.250018  0.188268  0.437580  1
  O  O308  1  0.749997  0.188423  0.437564  1
  O  O309  1  0.254305  0.245478  0.409446  1
  O  O310  1  0.745632  0.245496  0.409424  1
  O  O311  1  0.754340  0.245418  0.465721  1
  O  O312  1  0.245687  0.245487  0.465707  1
  O  O313  1  0.092685  0.300499  0.412416  1
  O  O314  1  0.907276  0.300514  0.412401  1
  O  O315  1  0.592656  0.300286  0.462707  1
  O  O316  1  0.407406  0.300335  0.462738  1
  O  O317  1  0.000000  0.249881  0.436165  1
  O  O318  1  0.499910  0.249058  0.439041  1
  O  O319  1  0.000000  0.376164  0.432167  1
  O  O320  1  0.499986  0.374993  0.442726  1
  O  O321  1  0.000000  0.124231  0.431870  1
  O  O322  1  0.500069  0.123633  0.443203  1
  O  O323  1  0.250455  0.000000  0.401073  1
  O  O324  1  0.749989  0.499993  0.460089  1
  O  O325  1  0.499677  0.500755  0.299024  1
  O  O326  1  0.749960  0.811522  0.298624  1
  O  O327  1  0.259197  0.627436  0.328511  1
  O  O328  1  0.740627  0.627434  0.328533  1
  O  O329  1  0.099925  0.574626  0.316534  1
  O  O330  1  0.899998  0.574756  0.316538  1
  O  O331  1  0.749934  0.586594  0.298603  1
  O  O332  1  0.249458  0.000000  0.335118  1
  O  O333  1  0.344683  0.913357  0.351628  1
  O  O334  1  0.656495  0.913137  0.351896  1
  O  O335  1  0.343274  0.913056  0.384294  1
  O  O336  1  0.655443  0.913338  0.384561  1
  O  O337  1  0.406620  0.952531  0.323326  1
  O  O338  1  0.591988  0.951344  0.323782  1
  O  O339  1  0.257696  0.880954  0.324896  1
  O  O340  1  0.742123  0.880896  0.324966  1
  O  O341  1  0.098887  0.823277  0.315990  1
  O  O342  1  0.900913  0.823245  0.316009  1
  O  O343  1  0.245668  0.754436  0.326751  1
  O  O344  1  0.754134  0.754412  0.326775  1
  O  O345  1  0.336558  0.703212  0.352017  1
  O  O346  1  0.663541  0.703583  0.352028  1
  O  O347  1  0.336395  0.703509  0.384107  1
  O  O348  1  0.663445  0.703245  0.384126  1
  O  O349  1  0.407214  0.699326  0.323731  1
  O  O350  1  0.592572  0.699334  0.323759  1
  O  O351  1  0.499955  0.750733  0.300086  1
  O  O352  1  0.500015  0.624810  0.303731  1
  O  O353  1  0.499864  0.876126  0.304279  1
  O  O354  1  0.375209  0.807707  0.367983  1
  O  O355  1  0.624719  0.807728  0.368174  1
  O  O356  1  0.499969  0.896365  0.368117  1
  O  O357  1  0.499981  0.717495  0.368078  1
  O  O358  1  0.749568  0.000000  0.335111  1
  O  O359  1  0.249812  0.811461  0.298596  1
  O  O360  1  0.249935  0.586597  0.298591  1
  O  O361  1  0.240271  0.372371  0.328548  1
  O  O362  1  0.759508  0.372388  0.328529  1
  O  O363  1  0.399993  0.423933  0.316535  1
  O  O364  1  0.599899  0.424118  0.316527  1
  O  O365  1  0.749885  0.499877  0.321095  1
  O  O366  1  0.249920  0.413091  0.298601  1
  O  O367  1  0.155835  0.086443  0.384430  1
  O  O368  1  0.843403  0.086788  0.384325  1
  O  O369  1  0.155857  0.086764  0.351752  1
  O  O370  1  0.844216  0.086610  0.351668  1
  O  O371  1  0.092406  0.048101  0.323547  1
  O  O372  1  0.906827  0.047682  0.323422  1
  O  O373  1  0.242347  0.118817  0.324909  1
  O  O374  1  0.757428  0.118831  0.324896  1
  O  O375  1  0.401021  0.176758  0.315942  1
  O  O376  1  0.598828  0.176774  0.315934  1
  O  O377  1  0.249970  0.188491  0.298612  1
  O  O378  1  0.254263  0.245347  0.326784  1
  O  O379  1  0.745637  0.245357  0.326758  1
  O  O380  1  0.163505  0.296523  0.384151  1
  O  O381  1  0.836388  0.296459  0.384132  1
  O  O382  1  0.163402  0.296419  0.352072  1
  O  O383  1  0.836515  0.296573  0.352050  1
  O  O384  1  0.092599  0.300367  0.323787  1
  O  O385  1  0.907242  0.300442  0.323768  1
  O  O386  1  0.000000  0.250576  0.299914  1
  O  O387  1  0.000000  0.376717  0.304109  1
  O  O388  1  0.000000  0.125145  0.304543  1
  O  O389  1  0.124668  0.192094  0.368138  1
  O  O390  1  0.875206  0.192168  0.368037  1
  O  O391  1  -0.000000  0.103458  0.368093  1
  O  O392  1  0.000000  0.282378  0.368114  1
  O  O393  1  0.250145  0.499856  0.321096  1
  O  O394  1  0.503129  0.000000  0.298650  1
  O  O395  1  0.843775  0.913027  0.768706  1
  O  O396  1  0.155483  0.913392  0.768604  1
  O  O397  1  0.843780  0.913303  0.801365  1
  O  O398  1  0.156296  0.913154  0.801283  1
  O  O399  1  0.836562  0.703425  0.769009  1
  O  O400  1  0.163363  0.703387  0.768991  1
  O  O401  1  0.836460  0.703367  0.801108  1
  O  O402  1  0.163481  0.703549  0.801087  1
  O  O403  1  0.875227  0.807735  0.785076  1
  O  O404  1  0.124676  0.807805  0.784974  1
  O  O405  1  -0.000000  0.896438  0.785039  1
  O  O406  1  -0.000000  0.717546  0.785061  1
  O  O407  1  0.655353  0.086502  0.768562  1
  O  O408  1  0.343349  0.086781  0.768829  1
  O  O409  1  0.663366  0.296536  0.768958  1
  O  O410  1  0.336484  0.296292  0.768977  1
  O  O411  1  0.759724  0.627494  0.745487  1
  O  O412  1  0.240267  0.627517  0.745472  1
  O  O413  1  0.259281  0.627529  0.685592  1
  O  O414  1  0.740769  0.627540  0.685615  1
  O  O415  1  0.600006  0.575846  0.733497  1
  O  O416  1  0.399978  0.575843  0.733495  1
  O  O417  1  0.099939  0.574822  0.697614  1
  O  O418  1  0.900091  0.574799  0.697619  1
  O  O419  1  0.750052  0.586759  0.715554  1
  O  O420  1  0.249978  0.586772  0.715541  1
  O  O421  1  0.749987  0.500010  0.693049  1
  O  O422  1  0.750571  -0.000000  0.679057  1
  O  O423  1  0.907749  0.951663  0.740585  1
  O  O424  1  0.093295  0.952537  0.740323  1
  O  O425  1  0.407918  0.951228  0.690369  1
  O  O426  1  0.593314  0.952426  0.690820  1
  O  O427  1  0.757620  0.881013  0.741827  1
  O  O428  1  0.242370  0.881024  0.741843  1
  O  O429  1  0.257656  0.880970  0.689194  1
  O  O430  1  0.742317  0.881010  0.689267  1
  O  O431  1  0.598888  0.823057  0.732857  1
  O  O432  1  0.401074  0.823118  0.732855  1
  O  O433  1  0.098992  0.823253  0.698183  1
  O  O434  1  0.901062  0.823317  0.698201  1
  O  O435  1  0.750034  0.811312  0.715546  1
  O  O436  1  0.250011  0.811493  0.715533  1
  O  O437  1  0.745655  0.754500  0.743722  1
  O  O438  1  0.254305  0.754531  0.743701  1
  O  O439  1  0.245702  0.754472  0.687380  1
  O  O440  1  0.754368  0.754523  0.687361  1
  O  O441  1  0.907356  0.699592  0.740712  1
  O  O442  1  0.092630  0.699608  0.740699  1
  O  O443  1  0.407335  0.699387  0.690335  1
  O  O444  1  0.592764  0.699446  0.690373  1
  O  O445  1  -0.000000  0.750502  0.716972  1
  O  O446  1  0.499898  0.749689  0.714164  1
  O  O447  1  -0.000000  0.624666  0.720746  1
  O  O448  1  0.499989  0.623506  0.710077  1
  O  O449  1  0.000000  0.500635  0.715967  1
  O  O450  1  -0.000000  0.875785  0.721308  1
  O  O451  1  0.500080  0.875194  0.709701  1
  O  O452  1  0.249998  0.500005  0.693049  1
  O  O453  1  0.496845  0.000000  0.715656  1
  O  O454  1  0.249980  0.500008  0.738049  1
  O  O455  1  0.250579  0.000000  0.752056  1
  O  O456  1  0.997818  -0.000000  0.715400  1
  O  O457  1  0.750400  0.000000  0.752039  1
  O  O458  1  0.499992  0.499103  0.716012  1
  O  O459  1  0.240687  0.372455  0.685620  1
  O  O460  1  0.759280  0.372466  0.685604  1
  O  O461  1  0.740250  0.372458  0.745456  1
  O  O462  1  0.259798  0.372482  0.745480  1
  O  O463  1  0.400060  0.425172  0.697610  1
  O  O464  1  0.599922  0.425172  0.697607  1
  O  O465  1  0.899990  0.424137  0.733502  1
  O  O466  1  0.100032  0.424112  0.733506  1
  O  O467  1  0.250046  0.413254  0.715553  1
  O  O468  1  0.749979  0.413256  0.715541  1
  O  O469  1  0.093172  0.047890  0.690682  1
  O  O470  1  0.907901  0.048789  0.690415  1
  O  O471  1  0.593292  0.047478  0.740270  1
  O  O472  1  0.407916  0.048707  0.740718  1
  O  O473  1  0.242375  0.118979  0.689176  1
  O  O474  1  0.757598  0.118971  0.689189  1
  O  O475  1  0.742420  0.118893  0.741830  1
  O  O476  1  0.257527  0.118958  0.741906  1
  O  O477  1  0.400993  0.176614  0.698161  1
  O  O478  1  0.598944  0.176659  0.698156  1
  O  O479  1  0.901091  0.176785  0.732867  1
  O  O480  1  0.098927  0.176863  0.732887  1
  O  O481  1  0.250018  0.188268  0.715541  1
  O  O482  1  0.749997  0.188423  0.715525  1
  O  O483  1  0.254305  0.245478  0.687407  1
  O  O484  1  0.745632  0.245496  0.687385  1
  O  O485  1  0.754340  0.245418  0.743682  1
  O  O486  1  0.245687  0.245487  0.743667  1
  O  O487  1  0.092685  0.300499  0.690377  1
  O  O488  1  0.907276  0.300514  0.690362  1
  O  O489  1  0.592656  0.300286  0.740668  1
  O  O490  1  0.407406  0.300335  0.740699  1
  O  O491  1  -0.000000  0.249881  0.714126  1
  O  O492  1  0.499910  0.249058  0.717002  1
  O  O493  1  0.000000  0.376164  0.710128  1
  O  O494  1  0.499986  0.374993  0.720687  1
  O  O495  1  0.000000  0.124231  0.709831  1
  O  O496  1  0.500069  0.123633  0.721164  1
  O  O497  1  0.250455  0.000000  0.679034  1
  O  O498  1  0.749989  0.499993  0.738050  1
  O  O499  1  0.499677  0.500755  0.576985  1
  O  O500  1  0.749960  0.811522  0.576585  1
  O  O501  1  0.259197  0.627436  0.606472  1
  O  O502  1  0.740627  0.627434  0.606494  1
  O  O503  1  0.099925  0.574626  0.594495  1
  O  O504  1  0.899998  0.574756  0.594499  1
  O  O505  1  0.749934  0.586594  0.576564  1
  O  O506  1  0.249458  -0.000000  0.613079  1
  O  O507  1  0.344683  0.913357  0.629589  1
  O  O508  1  0.656495  0.913137  0.629857  1
  O  O509  1  0.343274  0.913056  0.662255  1
  O  O510  1  0.655443  0.913338  0.662522  1
  O  O511  1  0.406620  0.952531  0.601287  1
  O  O512  1  0.591988  0.951344  0.601743  1
  O  O513  1  0.257696  0.880954  0.602857  1
  O  O514  1  0.742123  0.880896  0.602927  1
  O  O515  1  0.098887  0.823277  0.593951  1
  O  O516  1  0.900913  0.823245  0.593970  1
  O  O517  1  0.245668  0.754436  0.604712  1
  O  O518  1  0.754134  0.754412  0.604736  1
  O  O519  1  0.336558  0.703212  0.629978  1
  O  O520  1  0.663541  0.703583  0.629989  1
  O  O521  1  0.336395  0.703509  0.662068  1
  O  O522  1  0.663445  0.703245  0.662086  1
  O  O523  1  0.407214  0.699326  0.601692  1
  O  O524  1  0.592572  0.699334  0.601720  1
  O  O525  1  0.499955  0.750733  0.578047  1
  O  O526  1  0.500015  0.624810  0.581692  1
  O  O527  1  0.499864  0.876126  0.582240  1
  O  O528  1  0.375209  0.807707  0.645944  1
  O  O529  1  0.624719  0.807728  0.646135  1
  O  O530  1  0.499969  0.896365  0.646078  1
  O  O531  1  0.499981  0.717495  0.646039  1
  O  O532  1  0.749568  0.000000  0.613072  1
  O  O533  1  0.249812  0.811461  0.576556  1
  O  O534  1  0.249935  0.586597  0.576552  1
  O  O535  1  0.240271  0.372371  0.606508  1
  O  O536  1  0.759508  0.372388  0.606490  1
  O  O537  1  0.399993  0.423933  0.594496  1
  O  O538  1  0.599899  0.424118  0.594487  1
  O  O539  1  0.749885  0.499877  0.599056  1
  O  O540  1  0.249920  0.413091  0.576562  1
  O  O541  1  0.155835  0.086443  0.662391  1
  O  O542  1  0.843403  0.086788  0.662286  1
  O  O543  1  0.155857  0.086764  0.629713  1
  O  O544  1  0.844216  0.086610  0.629629  1
  O  O545  1  0.092406  0.048101  0.601508  1
  O  O546  1  0.906827  0.047682  0.601383  1
  O  O547  1  0.242347  0.118817  0.602870  1
  O  O548  1  0.757428  0.118831  0.602857  1
  O  O549  1  0.401021  0.176758  0.593903  1
  O  O550  1  0.598828  0.176774  0.593895  1
  O  O551  1  0.249970  0.188491  0.576573  1
  O  O552  1  0.254263  0.245347  0.604745  1
  O  O553  1  0.745637  0.245357  0.604719  1
  O  O554  1  0.163505  0.296523  0.662112  1
  O  O555  1  0.836388  0.296459  0.662093  1
  O  O556  1  0.163402  0.296419  0.630033  1
  O  O557  1  0.836515  0.296573  0.630011  1
  O  O558  1  0.092599  0.300367  0.601748  1
  O  O559  1  0.907242  0.300442  0.601729  1
  O  O560  1  0.000000  0.250576  0.577875  1
  O  O561  1  0.000000  0.376717  0.582070  1
  O  O562  1  -0.000000  0.125145  0.582504  1
  O  O563  1  0.124668  0.192094  0.646099  1
  O  O564  1  0.875206  0.192168  0.645998  1
  O  O565  1  -0.000000  0.103458  0.646054  1
  O  O566  1  -0.000000  0.282378  0.646075  1
  O  O567  1  0.250145  0.499856  0.599057  1
  O  O568  1  0.503129  0.000000  0.576611  1
  Si  Si569  1  0.499921  0.819266  0.290981  1
  Si  Si570  1  0.112376  0.730945  0.229115  1
  Si  Si571  1  0.887544  0.730877  0.229144  1
  Si  Si572  1  0.111559  0.884430  0.229040  1
  Si  Si573  1  0.888260  0.884359  0.229128  1
  Si  Si574  1  -0.000000  0.946444  0.284654  1
  Si  Si575  1  0.714644  0.572287  0.280252  1
  Si  Si576  1  0.285246  0.572358  0.280238  1
  Si  Si577  1  0.814132  0.937017  0.263215  1
  Si  Si578  1  0.185408  0.936847  0.263163  1
  Si  Si579  1  0.712785  0.817657  0.280273  1
  Si  Si580  1  0.287084  0.817679  0.280253  1
  Si  Si581  1  0.808848  0.695111  0.264044  1
  Si  Si582  1  0.190997  0.695161  0.264024  1
  Si  Si583  1  0.000000  0.693189  0.284292  1
  Si  Si584  1  0.499928  0.569323  0.290084  1
  Si  Si585  1  0.387556  0.268940  0.229110  1
  Si  Si586  1  0.785263  0.427291  0.280230  1
  Si  Si587  1  0.214649  0.427355  0.280243  1
  Si  Si588  1  0.685555  0.063032  0.263125  1
  Si  Si589  1  0.314237  0.062693  0.263310  1
  Si  Si590  1  0.787162  0.182154  0.280248  1
  Si  Si591  1  0.212673  0.182189  0.280272  1
  Si  Si592  1  0.691033  0.304594  0.263981  1
  Si  Si593  1  0.308829  0.304633  0.264002  1
  Si  Si594  1  0.499970  0.307461  0.284222  1
  Si  Si595  1  0.000000  0.430729  0.290044  1
  Si  Si596  1  0.500174  0.054156  0.284679  1
  Si  Si597  1  0.000000  0.181435  0.291048  1
  Si  Si598  1  0.611617  0.115435  0.229013  1
  Si  Si599  1  0.388319  0.115456  0.229215  1
  Si  Si600  1  0.612374  0.268922  0.229073  1
  Si  Si601  1  0.499984  0.818645  0.167186  1
  Si  Si602  1  -0.000000  0.819183  0.152005  1
  Si  Si603  1  0.499760  0.945703  0.145705  1
  Si  Si604  1  0.714722  0.572532  0.177986  1
  Si  Si605  1  0.285260  0.572537  0.177976  1
  Si  Si606  1  0.214638  0.572471  0.141269  1
  Si  Si607  1  0.785392  0.572455  0.141282  1
  Si  Si608  1  0.814529  0.936913  0.195008  1
  Si  Si609  1  0.185673  0.937208  0.194945  1
  Si  Si610  1  0.314443  0.936845  0.124142  1
  Si  Si611  1  0.685646  0.937211  0.124330  1
  Si  Si612  1  0.712765  0.817663  0.177966  1
  Si  Si613  1  0.287195  0.817730  0.177959  1
  Si  Si614  1  0.212862  0.817712  0.141260  1
  Si  Si615  1  0.787205  0.817691  0.141278  1
  Si  Si616  1  0.808976  0.695238  0.194226  1
  Si  Si617  1  0.191016  0.695260  0.194209  1
  Si  Si618  1  0.308848  0.695181  0.125005  1
  Si  Si619  1  0.691185  0.695170  0.125023  1
  Si  Si620  1  0.000000  0.692841  0.173955  1
  Si  Si621  1  0.499981  0.692284  0.145236  1
  Si  Si622  1  -0.000000  0.569280  0.151144  1
  Si  Si623  1  0.499997  0.569350  0.168175  1
  Si  Si624  1  0.000000  0.946183  0.173508  1
  Si  Si625  1  0.499748  0.053598  0.173526  1
  Si  Si626  1  0.499975  0.180548  0.151964  1
  Si  Si627  1  -0.000000  0.181083  0.167215  1
  Si  Si628  1  0.285358  0.427550  0.141279  1
  Si  Si629  1  0.714621  0.427548  0.141270  1
  Si  Si630  1  0.785272  0.427468  0.177975  1
  Si  Si631  1  0.214749  0.427461  0.177987  1
  Si  Si632  1  0.185722  0.062783  0.124236  1
  Si  Si633  1  0.814489  0.063066  0.124172  1
  Si  Si634  1  0.685613  0.062707  0.194908  1
  Si  Si635  1  0.314451  0.063090  0.195095  1
  Si  Si636  1  0.287127  0.182181  0.141264  1
  Si  Si637  1  0.712808  0.182228  0.141254  1
  Si  Si638  1  0.787217  0.182198  0.177949  1
  Si  Si639  1  0.212812  0.182197  0.177969  1
  Si  Si640  1  0.191152  0.304787  0.125045  1
  Si  Si641  1  0.808812  0.304795  0.125026  1
  Si  Si642  1  0.691029  0.304693  0.194180  1
  Si  Si643  1  0.308990  0.304692  0.194199  1
  Si  Si644  1  -0.000000  0.307470  0.145257  1
  Si  Si645  1  0.499973  0.306900  0.173926  1
  Si  Si646  1  0.000000  0.430483  0.168180  1
  Si  Si647  1  0.499995  0.430561  0.151138  1
  Si  Si648  1  -0.000000  0.054067  0.145680  1
  Si  Si649  1  0.112367  0.268961  0.090160  1
  Si  Si650  1  0.887535  0.269023  0.090130  1
  Si  Si651  1  0.111547  0.115470  0.090146  1
  Si  Si652  1  0.888254  0.115539  0.090058  1
  Si  Si653  1  0.499921  0.819266  0.568942  1
  Si  Si654  1  0.112376  0.730945  0.507076  1
  Si  Si655  1  0.887544  0.730877  0.507105  1
  Si  Si656  1  0.111559  0.884430  0.507001  1
  Si  Si657  1  0.888260  0.884359  0.507089  1
  Si  Si658  1  0.000000  0.946444  0.562615  1
  Si  Si659  1  0.714644  0.572287  0.558213  1
  Si  Si660  1  0.285246  0.572358  0.558199  1
  Si  Si661  1  0.814132  0.937017  0.541176  1
  Si  Si662  1  0.185408  0.936847  0.541124  1
  Si  Si663  1  0.712785  0.817657  0.558234  1
  Si  Si664  1  0.287084  0.817679  0.558214  1
  Si  Si665  1  0.808848  0.695111  0.542005  1
  Si  Si666  1  0.190997  0.695161  0.541985  1
  Si  Si667  1  0.000000  0.693189  0.562253  1
  Si  Si668  1  0.499928  0.569323  0.568045  1
  Si  Si669  1  0.387556  0.268940  0.507071  1
  Si  Si670  1  0.785263  0.427291  0.558191  1
  Si  Si671  1  0.214649  0.427355  0.558204  1
  Si  Si672  1  0.685555  0.063032  0.541086  1
  Si  Si673  1  0.314237  0.062693  0.541271  1
  Si  Si674  1  0.787162  0.182154  0.558209  1
  Si  Si675  1  0.212673  0.182189  0.558233  1
  Si  Si676  1  0.691033  0.304594  0.541942  1
  Si  Si677  1  0.308829  0.304633  0.541963  1
  Si  Si678  1  0.499970  0.307461  0.562183  1
  Si  Si679  1  -0.000000  0.430729  0.568005  1
  Si  Si680  1  0.500174  0.054156  0.562640  1
  Si  Si681  1  -0.000000  0.181435  0.569009  1
  Si  Si682  1  0.611617  0.115435  0.506974  1
  Si  Si683  1  0.388319  0.115456  0.507176  1
  Si  Si684  1  0.612374  0.268922  0.507034  1
  Si  Si685  1  0.499984  0.818645  0.445147  1
  Si  Si686  1  -0.000000  0.819183  0.429965  1
  Si  Si687  1  0.499760  0.945703  0.423666  1
  Si  Si688  1  0.714722  0.572532  0.455947  1
  Si  Si689  1  0.285260  0.572537  0.455937  1
  Si  Si690  1  0.214638  0.572471  0.419230  1
  Si  Si691  1  0.785392  0.572455  0.419243  1
  Si  Si692  1  0.814529  0.936913  0.472969  1
  Si  Si693  1  0.185673  0.937208  0.472906  1
  Si  Si694  1  0.314443  0.936845  0.402103  1
  Si  Si695  1  0.685646  0.937211  0.402291  1
  Si  Si696  1  0.712765  0.817663  0.455927  1
  Si  Si697  1  0.287195  0.817730  0.455920  1
  Si  Si698  1  0.212862  0.817712  0.419221  1
  Si  Si699  1  0.787205  0.817691  0.419239  1
  Si  Si700  1  0.808976  0.695238  0.472187  1
  Si  Si701  1  0.191016  0.695260  0.472170  1
  Si  Si702  1  0.308848  0.695181  0.402966  1
  Si  Si703  1  0.691185  0.695170  0.402984  1
  Si  Si704  1  -0.000000  0.692841  0.451915  1
  Si  Si705  1  0.499981  0.692284  0.423197  1
  Si  Si706  1  -0.000000  0.569280  0.429105  1
  Si  Si707  1  0.499997  0.569350  0.446136  1
  Si  Si708  1  -0.000000  0.946183  0.451469  1
  Si  Si709  1  0.499748  0.053598  0.451487  1
  Si  Si710  1  0.499975  0.180548  0.429925  1
  Si  Si711  1  0.000000  0.181083  0.445176  1
  Si  Si712  1  0.285358  0.427550  0.419240  1
  Si  Si713  1  0.714621  0.427548  0.419231  1
  Si  Si714  1  0.785272  0.427468  0.455936  1
  Si  Si715  1  0.214749  0.427461  0.455948  1
  Si  Si716  1  0.185722  0.062783  0.402197  1
  Si  Si717  1  0.814489  0.063066  0.402133  1
  Si  Si718  1  0.685613  0.062707  0.472869  1
  Si  Si719  1  0.314451  0.063090  0.473056  1
  Si  Si720  1  0.287127  0.182181  0.419225  1
  Si  Si721  1  0.712808  0.182228  0.419215  1
  Si  Si722  1  0.787217  0.182198  0.455910  1
  Si  Si723  1  0.212812  0.182197  0.455930  1
  Si  Si724  1  0.191152  0.304787  0.403006  1
  Si  Si725  1  0.808812  0.304795  0.402987  1
  Si  Si726  1  0.691029  0.304693  0.472140  1
  Si  Si727  1  0.308990  0.304692  0.472160  1
  Si  Si728  1  -0.000000  0.307470  0.423218  1
  Si  Si729  1  0.499973  0.306900  0.451887  1
  Si  Si730  1  0.000000  0.430483  0.446141  1
  Si  Si731  1  0.499995  0.430561  0.429098  1
  Si  Si732  1  -0.000000  0.054067  0.423641  1
  Si  Si733  1  0.214632  0.572274  0.316940  1
  Si  Si734  1  0.785293  0.572327  0.316952  1
  Si  Si735  1  0.314382  0.937180  0.333900  1
  Si  Si736  1  0.685413  0.936833  0.334084  1
  Si  Si737  1  0.212768  0.817672  0.316952  1
  Si  Si738  1  0.787030  0.817673  0.316982  1
  Si  Si739  1  0.308820  0.695072  0.333162  1
  Si  Si740  1  0.691001  0.695080  0.333181  1
  Si  Si741  1  0.499942  0.692842  0.312918  1
  Si  Si742  1  -0.000000  0.569502  0.307087  1
  Si  Si743  1  0.500176  0.946284  0.312508  1
  Si  Si744  1  -0.000000  0.819548  0.306270  1
  Si  Si745  1  0.388327  0.884332  0.367997  1
  Si  Si746  1  0.611618  0.884354  0.368200  1
  Si  Si747  1  0.387552  0.730849  0.368055  1
  Si  Si748  1  0.612406  0.730871  0.368089  1
  Si  Si749  1  0.112367  0.268961  0.368121  1
  Si  Si750  1  0.887535  0.269023  0.368091  1
  Si  Si751  1  0.285287  0.427287  0.316956  1
  Si  Si752  1  0.714603  0.427353  0.316942  1
  Si  Si753  1  0.185327  0.062896  0.333983  1
  Si  Si754  1  0.814217  0.062719  0.333930  1
  Si  Si755  1  0.287145  0.182161  0.316960  1
  Si  Si756  1  0.712704  0.182167  0.316940  1
  Si  Si757  1  0.191021  0.304635  0.333216  1
  Si  Si758  1  0.808814  0.304673  0.333194  1
  Si  Si759  1  0.000000  0.307810  0.312975  1
  Si  Si760  1  0.499927  0.430522  0.307118  1
  Si  Si761  1  -0.000000  0.054333  0.312478  1
  Si  Si762  1  0.499911  0.181156  0.306192  1
  Si  Si763  1  0.111547  0.115470  0.368107  1
  Si  Si764  1  0.888254  0.115539  0.368019  1
  Si  Si765  1  0.112376  0.730945  0.785037  1
  Si  Si766  1  0.887544  0.730877  0.785066  1
  Si  Si767  1  0.111559  0.884430  0.784962  1
  Si  Si768  1  0.888260  0.884359  0.785050  1
  Si  Si769  1  0.499984  0.818645  0.723108  1
  Si  Si770  1  0.000000  0.819183  0.707926  1
  Si  Si771  1  0.499760  0.945703  0.701627  1
  Si  Si772  1  0.714722  0.572532  0.733908  1
  Si  Si773  1  0.285260  0.572537  0.733898  1
  Si  Si774  1  0.214638  0.572471  0.697191  1
  Si  Si775  1  0.785392  0.572455  0.697204  1
  Si  Si776  1  0.814529  0.936913  0.750930  1
  Si  Si777  1  0.185673  0.937208  0.750867  1
  Si  Si778  1  0.314443  0.936845  0.680064  1
  Si  Si779  1  0.685646  0.937211  0.680252  1
  Si  Si780  1  0.712765  0.817663  0.733888  1
  Si  Si781  1  0.287195  0.817730  0.733881  1
  Si  Si782  1  0.212862  0.817712  0.697182  1
  Si  Si783  1  0.787205  0.817691  0.697200  1
  Si  Si784  1  0.808976  0.695238  0.750148  1
  Si  Si785  1  0.191016  0.695260  0.750131  1
  Si  Si786  1  0.308848  0.695181  0.680927  1
  Si  Si787  1  0.691185  0.695170  0.680945  1
  Si  Si788  1  0.000000  0.692841  0.729876  1
  Si  Si789  1  0.499981  0.692284  0.701158  1
  Si  Si790  1  -0.000000  0.569280  0.707066  1
  Si  Si791  1  0.499997  0.569350  0.724097  1
  Si  Si792  1  -0.000000  0.946183  0.729430  1
  Si  Si793  1  0.499748  0.053598  0.729448  1
  Si  Si794  1  0.499975  0.180548  0.707886  1
  Si  Si795  1  -0.000000  0.181083  0.723137  1
  Si  Si796  1  0.285358  0.427550  0.697201  1
  Si  Si797  1  0.714621  0.427548  0.697192  1
  Si  Si798  1  0.785272  0.427468  0.733897  1
  Si  Si799  1  0.214749  0.427461  0.733909  1
  Si  Si800  1  0.185722  0.062783  0.680158  1
  Si  Si801  1  0.814489  0.063066  0.680094  1
  Si  Si802  1  0.685613  0.062707  0.750830  1
  Si  Si803  1  0.314451  0.063090  0.751016  1
  Si  Si804  1  0.287127  0.182181  0.697186  1
  Si  Si805  1  0.712808  0.182228  0.697176  1
  Si  Si806  1  0.787217  0.182198  0.733871  1
  Si  Si807  1  0.212812  0.182197  0.733891  1
  Si  Si808  1  0.191152  0.304787  0.680967  1
  Si  Si809  1  0.808812  0.304795  0.680948  1
  Si  Si810  1  0.691029  0.304693  0.750101  1
  Si  Si811  1  0.308990  0.304692  0.750121  1
  Si  Si812  1  -0.000000  0.307470  0.701179  1
  Si  Si813  1  0.499973  0.306900  0.729848  1
  Si  Si814  1  -0.000000  0.430483  0.724102  1
  Si  Si815  1  0.499995  0.430561  0.707059  1
  Si  Si816  1  0.000000  0.054067  0.701602  1
  Si  Si817  1  0.214632  0.572274  0.594901  1
  Si  Si818  1  0.785293  0.572327  0.594913  1
  Si  Si819  1  0.314382  0.937180  0.611861  1
  Si  Si820  1  0.685413  0.936833  0.612045  1
  Si  Si821  1  0.212768  0.817672  0.594913  1
  Si  Si822  1  0.787030  0.817673  0.594943  1
  Si  Si823  1  0.308820  0.695072  0.611123  1
  Si  Si824  1  0.691001  0.695080  0.611142  1
  Si  Si825  1  0.499942  0.692842  0.590879  1
  Si  Si826  1  0.000000  0.569502  0.585048  1
  Si  Si827  1  0.500176  0.946284  0.590469  1
  Si  Si828  1  -0.000000  0.819548  0.584231  1
  Si  Si829  1  0.388327  0.884332  0.645958  1
  Si  Si830  1  0.611618  0.884354  0.646161  1
  Si  Si831  1  0.387552  0.730849  0.646016  1
  Si  Si832  1  0.612406  0.730871  0.646050  1
  Si  Si833  1  0.112367  0.268961  0.646082  1
  Si  Si834  1  0.887535  0.269023  0.646052  1
  Si  Si835  1  0.285287  0.427287  0.594917  1
  Si  Si836  1  0.714603  0.427353  0.594903  1
  Si  Si837  1  0.185327  0.062896  0.611944  1
  Si  Si838  1  0.814217  0.062719  0.611891  1
  Si  Si839  1  0.287145  0.182161  0.594921  1
  Si  Si840  1  0.712704  0.182167  0.594901  1
  Si  Si841  1  0.191021  0.304635  0.611177  1
  Si  Si842  1  0.808814  0.304673  0.611155  1
  Si  Si843  1  0.000000  0.307810  0.590936  1
  Si  Si844  1  0.499927  0.430522  0.585079  1
  Si  Si845  1  -0.000000  0.054333  0.590439  1
  Si  Si846  1  0.499911  0.181156  0.584153  1
  Si  Si847  1  0.111547  0.115470  0.646068  1
  Si  Si848  1  0.888254  0.115539  0.645979  1
  H  H849  1  0.343274  0.913056  0.095089  1
  H  H850  1  0.655443  0.913338  0.095357  1
  H  H851  1  0.336395  0.703509  0.094903  1
  H  H852  1  0.663445  0.703245  0.094921  1
  H  H853  1  0.155857  0.086764  0.062548  1
  H  H854  1  0.844216  0.086610  0.062464  1
  H  H855  1  0.163402  0.296419  0.062867  1
  H  H856  1  0.836515  0.296573  0.062845  1
  H  H857  1  0.843780  0.913303  0.812608  1
  H  H858  1  0.156296  0.913154  0.812526  1
  H  H859  1  0.836460  0.703367  0.812352  1
  H  H860  1  0.163481  0.703549  0.812331  1
  H  H861  1  0.655353  0.086502  0.779806  1
  H  H862  1  0.343349  0.086781  0.780073  1
  H  H863  1  0.663366  0.296536  0.780202  1
  H  H864  1  0.336484  0.296292  0.780221  1
