# generated using pymatgen
data_Si22H2O45
_symmetry_space_group_name_H-M   'P 1'
_cell_length_a   34.60850121
_cell_length_b   34.61039952
_cell_length_c   100.85092877
_cell_angle_alpha   90.00000000
_cell_angle_beta   45.00674678
_cell_angle_gamma   59.99402408
_symmetry_Int_Tables_number   1
_chemical_formula_structural   Si22H2O45
_chemical_formula_sum   'Si528 H48 O1080'
_cell_volume   60403.6424308
_cell_formula_units_Z   24
loop_
 _symmetry_equiv_pos_site_id
 _symmetry_equiv_pos_as_xyz
  1  'x, y, z'
loop_
 _atom_site_type_symbol
 _atom_site_label
 _atom_site_symmetry_multiplicity
 _atom_site_fract_x
 _atom_site_fract_y
 _atom_site_fract_z
 _atom_site_occupancy
  O  O1  1  0.648181  0.250045  0.220890  1
  O  O2  1  0.953493  0.148223  0.122119  1
  O  O3  1  0.101669  0.250032  0.122136  1
  O  O4  1  0.000000  0.148224  0.171496  1
  O  O5  1  0.851675  0.000000  0.171523  1
  O  O6  1  0.648100  0.101867  0.220924  1
  O  O7  1  0.398180  0.250029  0.220896  1
  O  O8  1  0.101744  0.148212  0.122107  1
  O  O9  1  0.851659  0.250038  0.122132  1
  O  O10  1  0.851742  0.148223  0.171504  1
  O  O11  1  0.546371  0.101847  0.220906  1
  O  O12  1  0.633787  0.327060  0.218371  1
  O  O13  1  0.749898  0.327059  0.162015  1
  O  O14  1  0.866137  0.210844  0.162001  1
  O  O15  1  0.962032  0.327046  0.162027  1
  O  O16  1  0.345900  0.327048  0.218387  1
  O  O17  1  0.962108  0.210839  0.161996  1
  O  O18  1  0.633817  0.077046  0.181009  1
  O  O19  1  0.749901  0.077063  0.181025  1
  O  O20  1  0.537748  0.039223  0.264961  1
  O  O21  1  0.866046  0.173028  0.124654  1
  O  O22  1  0.749941  0.173021  0.181007  1
  O  O23  1  0.633700  0.289243  0.181024  1
  O  O24  1  0.537815  0.173027  0.181006  1
  O  O25  1  0.153945  0.173004  0.124642  1
  O  O26  1  0.537730  0.289231  0.181032  1
  O  O27  1  0.633721  0.039237  0.218402  1
  O  O28  1  0.749975  0.247256  0.204341  1
  O  O29  1  0.888046  0.247252  0.137327  1
  O  O30  1  0.005454  0.247247  0.137326  1
  O  O31  1  0.367374  0.247236  0.204345  1
  O  O32  1  0.611771  0.135447  0.205713  1
  O  O33  1  0.494393  0.002827  0.261323  1
  O  O34  1  0.132471  0.002801  0.261330  1
  O  O35  1  0.749861  0.252829  0.138682  1
  O  O36  1  0.888076  0.114634  0.138665  1
  O  O37  1  0.611787  0.252833  0.205698  1
  O  O38  1  0.494377  0.252836  0.205708  1
  O  O39  1  0.132579  0.114617  0.138649  1
  O  O40  1  0.132480  0.252808  0.138684  1
  O  O41  1  0.749876  0.002834  0.204375  1
  O  O42  1  0.611825  0.002814  0.204357  1
  O  O43  1  0.993197  0.072870  0.094809  1
  O  O44  1  0.249880  0.177202  0.094819  1
  O  O45  1  0.610988  0.322877  0.248201  1
  O  O46  1  0.993251  0.183852  0.130144  1
  O  O47  1  0.993194  0.322875  0.130169  1
  O  O48  1  0.888968  0.183856  0.180758  1
  O  O49  1  0.610992  0.072868  0.162250  1
  O  O50  1  0.645623  0.177218  0.212872  1
  O  O51  1  0.249965  0.072858  0.094794  1
  O  O52  1  0.888855  0.177196  0.094822  1
  O  O53  1  0.249972  0.322854  0.248209  1
  O  O54  1  0.854226  0.322861  0.130155  1
  O  O55  1  0.854224  0.072870  0.162258  1
  O  O56  1  0.506660  0.177201  0.212863  1
  O  O57  1  0.610883  0.066215  0.248238  1
  O  O58  1  0.506580  0.316239  0.212883  1
  O  O59  1  0.610864  0.316222  0.162269  1
  O  O60  1  0.506606  0.066225  0.248224  1
  O  O61  1  0.499986  0.148209  0.171504  1
  O  O62  1  0.648199  0.000000  0.171508  1
  O  O63  1  0.648092  0.351864  0.171520  1
  O  O64  1  0.953471  0.648231  0.122121  1
  O  O65  1  0.398085  0.351863  0.220922  1
  O  O66  1  0.000000  0.648191  0.171491  1
  O  O67  1  0.648195  0.500029  0.171505  1
  O  O68  1  0.648095  0.601864  0.220920  1
  O  O69  1  0.953496  0.398221  0.122122  1
  O  O70  1  0.101753  0.648195  0.122103  1
  O  O71  1  0.546342  0.351865  0.220906  1
  O  O72  1  0.851735  0.648215  0.171502  1
  O  O73  1  0.851663  0.500038  0.171521  1
  O  O74  1  0.546359  0.601845  0.220905  1
  O  O75  1  0.851760  0.398203  0.122107  1
  O  O76  1  0.633811  0.577037  0.181005  1
  O  O77  1  0.749894  0.577059  0.181021  1
  O  O78  1  0.866153  0.460826  0.124624  1
  O  O79  1  0.537818  0.423033  0.264951  1
  O  O80  1  0.153946  0.423005  0.264955  1
  O  O81  1  0.537736  0.539241  0.264966  1
  O  O82  1  0.866044  0.423030  0.162021  1
  O  O83  1  0.749958  0.423007  0.162006  1
  O  O84  1  0.633708  0.539238  0.218402  1
  O  O85  1  0.611764  0.385449  0.204358  1
  O  O86  1  0.367267  0.385424  0.204374  1
  O  O87  1  0.749995  0.497232  0.138653  1
  O  O88  1  0.611769  0.635436  0.205708  1
  O  O89  1  0.888039  0.497252  0.138671  1
  O  O90  1  0.494386  0.502840  0.261328  1
  O  O91  1  0.132594  0.364612  0.261312  1
  O  O92  1  0.132467  0.502815  0.261333  1
  O  O93  1  0.888056  0.614641  0.138665  1
  O  O94  1  0.132584  0.614601  0.138647  1
  O  O95  1  0.749866  0.502833  0.204374  1
  O  O96  1  0.888090  0.364623  0.137317  1
  O  O97  1  0.611811  0.502815  0.204358  1
  O  O98  1  0.993165  0.572887  0.094812  1
  O  O99  1  0.888989  0.433833  0.094788  1
  O  O100  1  0.645626  0.427211  0.180769  1
  O  O101  1  0.249865  0.427210  0.248232  1
  O  O102  1  0.611007  0.572857  0.162240  1
  O  O103  1  0.993255  0.433847  0.094802  1
  O  O104  1  0.249977  0.572846  0.094794  1
  O  O105  1  0.888866  0.427202  0.180782  1
  O  O106  1  0.506651  0.427215  0.248214  1
  O  O107  1  0.854218  0.572865  0.162253  1
  O  O108  1  0.610868  0.566231  0.248239  1
  O  O109  1  0.506592  0.566233  0.248227  1
  O  O110  1  0.000000  0.351845  0.171527  1
  O  O111  1  0.648169  0.750040  0.220886  1
  O  O112  1  0.648081  0.851880  0.171517  1
  O  O113  1  0.101659  0.750025  0.122140  1
  O  O114  1  0.398105  0.851853  0.220909  1
  O  O115  1  0.953501  0.898222  0.122125  1
  O  O116  1  0.398203  0.750022  0.220886  1
  O  O117  1  0.851655  0.750046  0.122131  1
  O  O118  1  0.546346  0.851859  0.220899  1
  O  O119  1  0.851763  0.898207  0.122111  1
  O  O120  1  0.633791  0.827049  0.218365  1
  O  O121  1  0.749890  0.827065  0.162015  1
  O  O122  1  0.866127  0.710840  0.162003  1
  O  O123  1  0.962018  0.827036  0.162031  1
  O  O124  1  0.345907  0.827043  0.218380  1
  O  O125  1  0.962118  0.710814  0.161993  1
  O  O126  1  0.866155  0.960832  0.124629  1
  O  O127  1  0.537808  0.923022  0.264950  1
  O  O128  1  0.153954  0.922994  0.264955  1
  O  O129  1  0.866020  0.673045  0.124657  1
  O  O130  1  0.749934  0.673015  0.181004  1
  O  O131  1  0.633699  0.789251  0.181016  1
  O  O132  1  0.537840  0.673013  0.180994  1
  O  O133  1  0.153942  0.672993  0.124643  1
  O  O134  1  0.537747  0.789229  0.181018  1
  O  O135  1  0.866049  0.923031  0.162023  1
  O  O136  1  0.749963  0.923005  0.162007  1
  O  O137  1  0.749968  0.747243  0.204341  1
  O  O138  1  0.611761  0.885448  0.204356  1
  O  O139  1  0.888031  0.747256  0.137331  1
  O  O140  1  0.005453  0.747233  0.137326  1
  O  O141  1  0.367271  0.885421  0.204365  1
  O  O142  1  0.367385  0.747228  0.204341  1
  O  O143  1  0.749996  0.997240  0.138657  1
  O  O144  1  0.888047  0.997256  0.138674  1
  O  O145  1  0.132600  0.864603  0.261313  1
  O  O146  1  0.749849  0.752851  0.138678  1
  O  O147  1  0.611795  0.752826  0.205687  1
  O  O148  1  0.494409  0.752823  0.205692  1
  O  O149  1  0.132463  0.752799  0.138691  1
  O  O150  1  0.888091  0.864625  0.137320  1
  O  O151  1  0.249868  0.677204  0.094825  1
  O  O152  1  0.889000  0.933831  0.094791  1
  O  O153  1  0.610968  0.822868  0.248199  1
  O  O154  1  0.645622  0.927219  0.180771  1
  O  O155  1  0.993246  0.683843  0.130144  1
  O  O156  1  0.993191  0.822870  0.130172  1
  O  O157  1  0.249880  0.927200  0.248224  1
  O  O158  1  0.888975  0.683832  0.180753  1
  O  O159  1  0.645609  0.677217  0.212867  1
  O  O160  1  0.993268  0.933841  0.094805  1
  O  O161  1  0.888840  0.677212  0.094822  1
  O  O162  1  0.249988  0.822842  0.248206  1
  O  O163  1  0.888864  0.927193  0.180786  1
  O  O164  1  0.854231  0.822861  0.130156  1
  O  O165  1  0.506650  0.927206  0.248210  1
  O  O166  1  0.506670  0.677195  0.212855  1
  O  O167  1  0.506593  0.816235  0.212871  1
  O  O168  1  0.610859  0.816236  0.162261  1
  O  O169  1  0.148204  0.250002  0.220888  1
  O  O170  1  0.453525  0.148172  0.122118  1
  O  O171  1  0.601669  0.250010  0.122137  1
  O  O172  1  0.351653  0.000000  0.171516  1
  O  O173  1  0.148089  0.101841  0.220914  1
  O  O174  1  0.898190  0.250030  0.220886  1
  O  O175  1  0.601763  0.148179  0.122111  1
  O  O176  1  0.351706  0.249989  0.122130  1
  O  O177  1  0.351775  0.148166  0.171504  1
  O  O178  1  0.046338  0.101838  0.220904  1
  O  O179  1  0.133839  0.327003  0.218362  1
  O  O180  1  0.249945  0.327015  0.162010  1
  O  O181  1  0.366169  0.210788  0.162001  1
  O  O182  1  0.462033  0.327016  0.162027  1
  O  O183  1  0.845907  0.327062  0.218382  1
  O  O184  1  0.462119  0.210808  0.162001  1
  O  O185  1  0.133790  0.077024  0.181005  1
  O  O186  1  0.249890  0.077041  0.181017  1
  O  O187  1  0.037728  0.039220  0.264961  1
  O  O188  1  0.366076  0.172984  0.124655  1
  O  O189  1  0.249970  0.172977  0.181006  1
  O  O190  1  0.133737  0.289200  0.181016  1
  O  O191  1  0.037824  0.173015  0.180995  1
  O  O192  1  0.653957  0.172988  0.124644  1
  O  O193  1  0.037744  0.289228  0.181026  1
  O  O194  1  0.133687  0.039223  0.218398  1
  O  O195  1  0.250010  0.247198  0.204340  1
  O  O196  1  0.388085  0.247203  0.137327  1
  O  O197  1  0.505471  0.247206  0.137325  1
  O  O198  1  0.867370  0.247260  0.204339  1
  O  O199  1  0.111762  0.135424  0.205705  1
  O  O200  1  0.994387  0.002809  0.261324  1
  O  O201  1  0.632486  0.002791  0.261333  1
  O  O202  1  0.249899  0.252790  0.138678  1
  O  O203  1  0.388102  0.114589  0.138665  1
  O  O204  1  0.111830  0.252787  0.205689  1
  O  O205  1  0.994404  0.252815  0.205695  1
  O  O206  1  0.632584  0.114616  0.138658  1
  O  O207  1  0.632478  0.252800  0.138687  1
  O  O208  1  0.249851  0.002808  0.204368  1
  O  O209  1  0.111778  0.002809  0.204357  1
  O  O210  1  0.493208  0.072824  0.094811  1
  O  O211  1  0.749876  0.177192  0.094821  1
  O  O212  1  0.111013  0.322841  0.248198  1
  O  O213  1  0.493280  0.183798  0.130146  1
  O  O214  1  0.493206  0.322836  0.130165  1
  O  O215  1  0.388996  0.183811  0.180759  1
  O  O216  1  0.110966  0.072863  0.162244  1
  O  O217  1  0.145627  0.177185  0.212866  1
  O  O218  1  0.749984  0.072833  0.094799  1
  O  O219  1  0.388889  0.177161  0.094822  1
  O  O220  1  0.749980  0.322858  0.248204  1
  O  O221  1  0.354271  0.322813  0.130148  1
  O  O222  1  0.354234  0.072824  0.162252  1
  O  O223  1  0.006656  0.177186  0.212854  1
  O  O224  1  0.110859  0.066210  0.248233  1
  O  O225  1  0.006616  0.316202  0.212875  1
  O  O226  1  0.110897  0.316201  0.162262  1
  O  O227  1  0.006576  0.066212  0.248224  1
  O  O228  1  0.148151  0.000000  0.171508  1
  O  O229  1  0.148140  0.351818  0.171513  1
  O  O230  1  0.453484  0.648203  0.122128  1
  O  O231  1  0.898108  0.351854  0.220916  1
  O  O232  1  0.148217  0.499993  0.171493  1
  O  O233  1  0.148107  0.601833  0.220910  1
  O  O234  1  0.453515  0.398186  0.122117  1
  O  O235  1  0.601761  0.648185  0.122106  1
  O  O236  1  0.046393  0.351813  0.220897  1
  O  O237  1  0.351759  0.648178  0.171510  1
  O  O238  1  0.351670  0.500005  0.171519  1
  O  O239  1  0.046378  0.601814  0.220893  1
  O  O240  1  0.351786  0.398170  0.122099  1
  O  O241  1  0.133821  0.577009  0.180996  1
  O  O242  1  0.249915  0.577027  0.181013  1
  O  O243  1  0.366159  0.460802  0.124624  1
  O  O244  1  0.037842  0.423001  0.264945  1
  O  O245  1  0.653952  0.423010  0.264957  1
  O  O246  1  0.037735  0.539225  0.264959  1
  O  O247  1  0.366060  0.422993  0.162016  1
  O  O248  1  0.249986  0.422971  0.161995  1
  O  O249  1  0.133722  0.539206  0.218391  1
  O  O250  1  0.111816  0.385398  0.204350  1
  O  O251  1  0.867274  0.385446  0.204374  1
  O  O252  1  0.250007  0.497205  0.138646  1
  O  O253  1  0.111787  0.635409  0.205697  1
  O  O254  1  0.388068  0.497216  0.138666  1
  O  O255  1  0.994411  0.502803  0.261317  1
  O  O256  1  0.632585  0.364631  0.261313  1
  O  O257  1  0.632479  0.502820  0.261336  1
  O  O258  1  0.388100  0.614591  0.138669  1
  O  O259  1  0.632602  0.614611  0.138647  1
  O  O260  1  0.249871  0.502802  0.204368  1
  O  O261  1  0.388109  0.364591  0.137311  1
  O  O262  1  0.111836  0.502781  0.204344  1
  O  O263  1  0.493200  0.572848  0.094815  1
  O  O264  1  0.389000  0.433821  0.094786  1
  O  O265  1  0.145665  0.427165  0.180759  1
  O  O266  1  0.749885  0.427208  0.248230  1
  O  O267  1  0.111008  0.572832  0.162233  1
  O  O268  1  0.493273  0.433814  0.094799  1
  O  O269  1  0.749988  0.572841  0.094790  1
  O  O270  1  0.388864  0.427173  0.180782  1
  O  O271  1  0.006693  0.427163  0.248205  1
  O  O272  1  0.354235  0.572828  0.162258  1
  O  O273  1  0.110864  0.566215  0.248232  1
  O  O274  1  0.006611  0.566196  0.248214  1
  O  O275  1  0.500005  0.648199  0.171495  1
  O  O276  1  0.000000  0.398203  0.292807  1
  O  O277  1  0.499865  0.351830  0.171528  1
  O  O278  1  0.148190  0.750005  0.220892  1
  O  O279  1  0.148079  0.851841  0.171528  1
  O  O280  1  0.601667  0.750016  0.122128  1
  O  O281  1  0.898092  0.851833  0.220920  1
  O  O282  1  0.453468  0.898199  0.122120  1
  O  O283  1  0.898185  0.750003  0.220885  1
  O  O284  1  0.351641  0.750014  0.122147  1
  O  O285  1  0.046345  0.851821  0.220911  1
  O  O286  1  0.000000  0.851834  0.171534  1
  O  O287  1  0.351724  0.898190  0.122108  1
  O  O288  1  0.133806  0.827013  0.218370  1
  O  O289  1  0.249870  0.827048  0.162029  1
  O  O290  1  0.366136  0.710809  0.162011  1
  O  O291  1  0.462033  0.827022  0.162019  1
  O  O292  1  0.845902  0.827033  0.218381  1
  O  O293  1  0.462120  0.710810  0.161998  1
  O  O294  1  0.366114  0.960814  0.124626  1
  O  O295  1  0.037836  0.923002  0.264949  1
  O  O296  1  0.653946  0.922982  0.264955  1
  O  O297  1  0.366037  0.672998  0.124666  1
  O  O298  1  0.249963  0.672981  0.181008  1
  O  O299  1  0.133688  0.789216  0.181029  1
  O  O300  1  0.037824  0.672994  0.180994  1
  O  O301  1  0.653954  0.672998  0.124637  1
  O  O302  1  0.037725  0.789216  0.181033  1
  O  O303  1  0.366029  0.923001  0.162017  1
  O  O304  1  0.249920  0.923000  0.162007  1
  O  O305  1  0.249986  0.747211  0.204348  1
  O  O306  1  0.111743  0.885425  0.204367  1
  O  O307  1  0.388017  0.747241  0.137344  1
  O  O308  1  0.505460  0.747214  0.137323  1
  O  O309  1  0.867258  0.885428  0.204377  1
  O  O310  1  0.867379  0.747227  0.204335  1
  O  O311  1  0.249956  0.997222  0.138654  1
  O  O312  1  0.388027  0.997229  0.138667  1
  O  O313  1  0.632571  0.864609  0.261312  1
  O  O314  1  0.249852  0.752803  0.138692  1
  O  O315  1  0.111814  0.752787  0.205693  1
  O  O316  1  0.994391  0.752797  0.205698  1
  O  O317  1  0.632482  0.752813  0.138675  1
  O  O318  1  0.388055  0.864610  0.137318  1
  O  O319  1  0.749876  0.677196  0.094811  1
  O  O320  1  0.388953  0.933829  0.094790  1
  O  O321  1  0.110995  0.822846  0.248203  1
  O  O322  1  0.145591  0.927197  0.180777  1
  O  O323  1  0.493250  0.683820  0.130150  1
  O  O324  1  0.493179  0.822844  0.130163  1
  O  O325  1  0.749875  0.927178  0.248232  1
  O  O326  1  0.388989  0.683817  0.180761  1
  O  O327  1  0.145635  0.677177  0.212864  1
  O  O328  1  0.493239  0.933811  0.094800  1
  O  O329  1  0.388853  0.677181  0.094832  1
  O  O330  1  0.749973  0.822828  0.248202  1
  O  O331  1  0.388852  0.927180  0.180777  1
  O  O332  1  0.354195  0.822843  0.130163  1
  O  O333  1  0.006656  0.927169  0.248218  1
  O  O334  1  0.006670  0.677162  0.212850  1
  O  O335  1  0.006586  0.816193  0.212885  1
  O  O336  1  0.110858  0.816205  0.162273  1
  O  O337  1  0.499864  0.851838  0.171520  1
  O  O338  1  0.398104  0.101854  0.292833  1
  O  O339  1  0.648181  0.250045  0.463516  1
  O  O340  1  0.953493  0.148223  0.364745  1
  O  O341  1  0.101669  0.250032  0.364761  1
  O  O342  1  0.398176  0.000000  0.292816  1
  O  O343  1  0.000000  0.148224  0.414122  1
  O  O344  1  0.851675  0.000000  0.414149  1
  O  O345  1  0.648100  0.101867  0.463549  1
  O  O346  1  0.398180  0.250029  0.463521  1
  O  O347  1  0.101744  0.148212  0.364733  1
  O  O348  1  0.851659  0.250038  0.364758  1
  O  O349  1  0.851742  0.148223  0.414130  1
  O  O350  1  0.546371  0.101847  0.463532  1
  O  O351  1  0.962033  0.077035  0.320699  1
  O  O352  1  0.345900  0.077049  0.320694  1
  O  O353  1  0.633787  0.327060  0.460996  1
  O  O354  1  0.749898  0.327059  0.404641  1
  O  O355  1  0.866137  0.210844  0.404627  1
  O  O356  1  0.962032  0.327046  0.404653  1
  O  O357  1  0.345900  0.327048  0.461012  1
  O  O358  1  0.962108  0.210839  0.404622  1
  O  O359  1  0.633817  0.077046  0.423635  1
  O  O360  1  0.749901  0.077063  0.423651  1
  O  O361  1  0.537748  0.039223  0.507587  1
  O  O362  1  0.866046  0.173028  0.367280  1
  O  O363  1  0.749941  0.173021  0.423633  1
  O  O364  1  0.633700  0.289243  0.423650  1
  O  O365  1  0.537815  0.173027  0.423632  1
  O  O366  1  0.153945  0.173004  0.367268  1
  O  O367  1  0.537730  0.289231  0.423658  1
  O  O368  1  0.633721  0.039237  0.461027  1
  O  O369  1  0.367276  0.135420  0.324338  1
  O  O370  1  0.749975  0.247256  0.446967  1
  O  O371  1  0.888046  0.247252  0.379953  1
  O  O372  1  0.005454  0.247247  0.379952  1
  O  O373  1  0.367374  0.247236  0.446971  1
  O  O374  1  0.611771  0.135447  0.448339  1
  O  O375  1  0.494393  0.002827  0.503948  1
  O  O376  1  0.132471  0.002801  0.503956  1
  O  O377  1  0.749861  0.252829  0.381308  1
  O  O378  1  0.888076  0.114634  0.381291  1
  O  O379  1  0.611787  0.252833  0.448324  1
  O  O380  1  0.494377  0.252836  0.448334  1
  O  O381  1  0.132579  0.114617  0.381275  1
  O  O382  1  0.132480  0.252808  0.381310  1
  O  O383  1  0.749876  0.002834  0.447000  1
  O  O384  1  0.611825  0.002814  0.446982  1
  O  O385  1  0.993197  0.072870  0.337435  1
  O  O386  1  0.249880  0.177202  0.337445  1
  O  O387  1  0.610988  0.322877  0.490827  1
  O  O388  1  0.993251  0.183852  0.372770  1
  O  O389  1  0.993194  0.322875  0.372794  1
  O  O390  1  0.888968  0.183856  0.423383  1
  O  O391  1  0.610992  0.072868  0.404875  1
  O  O392  1  0.645623  0.177218  0.455498  1
  O  O393  1  0.249965  0.072858  0.337419  1
  O  O394  1  0.888855  0.177196  0.337448  1
  O  O395  1  0.249972  0.322854  0.490835  1
  O  O396  1  0.854226  0.322861  0.372781  1
  O  O397  1  0.854224  0.072870  0.404883  1
  O  O398  1  0.506660  0.177201  0.455489  1
  O  O399  1  0.610883  0.066215  0.490864  1
  O  O400  1  0.506580  0.316239  0.455509  1
  O  O401  1  0.610864  0.316222  0.404894  1
  O  O402  1  0.506606  0.066225  0.490850  1
  O  O403  1  0.101674  -0.000000  0.292828  1
  O  O404  1  0.499986  0.148209  0.414130  1
  O  O405  1  0.648199  0.000000  0.414134  1
  O  O406  1  0.101646  0.500043  0.292833  1
  O  O407  1  0.398092  0.601866  0.292838  1
  O  O408  1  0.648092  0.351864  0.414145  1
  O  O409  1  0.953471  0.648231  0.364747  1
  O  O410  1  0.398085  0.351863  0.463548  1
  O  O411  1  0.000000  0.648191  0.414116  1
  O  O412  1  0.648195  0.500029  0.414131  1
  O  O413  1  0.648095  0.601864  0.463545  1
  O  O414  1  0.953496  0.398221  0.364748  1
  O  O415  1  0.398184  0.500035  0.292820  1
  O  O416  1  0.101748  0.398210  0.292819  1
  O  O417  1  0.101753  0.648195  0.364729  1
  O  O418  1  0.546342  0.351865  0.463532  1
  O  O419  1  0.851735  0.648215  0.414128  1
  O  O420  1  0.851663  0.500038  0.414147  1
  O  O421  1  0.546359  0.601845  0.463530  1
  O  O422  1  0.851760  0.398203  0.364733  1
  O  O423  1  0.962007  0.577053  0.320700  1
  O  O424  1  0.345895  0.577055  0.320699  1
  O  O425  1  0.962116  0.460826  0.320686  1
  O  O426  1  0.633811  0.577037  0.423631  1
  O  O427  1  0.749894  0.577059  0.423647  1
  O  O428  1  0.866153  0.460826  0.367250  1
  O  O429  1  0.537818  0.423033  0.507577  1
  O  O430  1  0.153946  0.423005  0.507581  1
  O  O431  1  0.537736  0.539241  0.507592  1
  O  O432  1  0.866044  0.423030  0.404647  1
  O  O433  1  0.749958  0.423007  0.404632  1
  O  O434  1  0.633708  0.539238  0.461028  1
  O  O435  1  0.005439  0.497250  0.324328  1
  O  O436  1  0.367266  0.635429  0.324342  1
  O  O437  1  0.367372  0.497246  0.324320  1
  O  O438  1  0.611764  0.385449  0.446984  1
  O  O439  1  0.367267  0.385424  0.447000  1
  O  O440  1  0.749995  0.497232  0.381278  1
  O  O441  1  0.611769  0.635436  0.448334  1
  O  O442  1  0.888039  0.497252  0.381296  1
  O  O443  1  0.494386  0.502840  0.503953  1
  O  O444  1  0.132594  0.364612  0.503938  1
  O  O445  1  0.132467  0.502815  0.503958  1
  O  O446  1  0.888056  0.614641  0.381291  1
  O  O447  1  0.132584  0.614601  0.381273  1
  O  O448  1  0.749866  0.502833  0.447000  1
  O  O449  1  0.888090  0.364623  0.379943  1
  O  O450  1  0.611811  0.502815  0.446983  1
  O  O451  1  0.993165  0.572887  0.337438  1
  O  O452  1  0.888989  0.433833  0.337413  1
  O  O453  1  0.645626  0.427211  0.423395  1
  O  O454  1  0.249865  0.427210  0.490857  1
  O  O455  1  0.611007  0.572857  0.404866  1
  O  O456  1  0.993255  0.433847  0.337428  1
  O  O457  1  0.249977  0.572846  0.337419  1
  O  O458  1  0.888866  0.427202  0.423408  1
  O  O459  1  0.506651  0.427215  0.490840  1
  O  O460  1  0.854218  0.572865  0.404879  1
  O  O461  1  0.610868  0.566231  0.490864  1
  O  O462  1  0.506592  0.566233  0.490853  1
  O  O463  1  0.499990  0.398220  0.292811  1
  O  O464  1  0.000000  0.351845  0.414152  1
  O  O465  1  0.000000  0.898200  0.292811  1
  O  O466  1  0.648169  0.750040  0.463511  1
  O  O467  1  0.648081  0.851880  0.414143  1
  O  O468  1  0.101659  0.750025  0.364765  1
  O  O469  1  0.398105  0.851853  0.463535  1
  O  O470  1  0.953501  0.898222  0.364751  1
  O  O471  1  0.101769  0.898193  0.292818  1
  O  O472  1  0.398203  0.750022  0.463512  1
  O  O473  1  0.851655  0.750046  0.364757  1
  O  O474  1  0.546346  0.851859  0.463525  1
  O  O475  1  0.851763  0.898207  0.364736  1
  O  O476  1  0.962135  0.960818  0.320687  1
  O  O477  1  0.633791  0.827049  0.460990  1
  O  O478  1  0.749890  0.827065  0.404641  1
  O  O479  1  0.866127  0.710840  0.404628  1
  O  O480  1  0.962018  0.827036  0.404656  1
  O  O481  1  0.345907  0.827043  0.461005  1
  O  O482  1  0.962118  0.710814  0.404619  1
  O  O483  1  0.866155  0.960832  0.367254  1
  O  O484  1  0.537808  0.923022  0.507575  1
  O  O485  1  0.153954  0.922994  0.507581  1
  O  O486  1  0.866020  0.673045  0.367282  1
  O  O487  1  0.749934  0.673015  0.423629  1
  O  O488  1  0.633699  0.789251  0.423642  1
  O  O489  1  0.537840  0.673013  0.423620  1
  O  O490  1  0.153942  0.672993  0.367269  1
  O  O491  1  0.537747  0.789229  0.423643  1
  O  O492  1  0.866049  0.923031  0.404649  1
  O  O493  1  0.749963  0.923005  0.404633  1
  O  O494  1  0.005476  0.997230  0.324325  1
  O  O495  1  0.367358  0.997242  0.324316  1
  O  O496  1  0.749968  0.747243  0.446966  1
  O  O497  1  0.611761  0.885448  0.446981  1
  O  O498  1  0.888031  0.747256  0.379957  1
  O  O499  1  0.005453  0.747233  0.379952  1
  O  O500  1  0.367271  0.885421  0.446991  1
  O  O501  1  0.367385  0.747228  0.446967  1
  O  O502  1  0.749996  0.997240  0.381282  1
  O  O503  1  0.888047  0.997256  0.381300  1
  O  O504  1  0.132600  0.864603  0.503939  1
  O  O505  1  0.749849  0.752851  0.381304  1
  O  O506  1  0.611795  0.752826  0.448312  1
  O  O507  1  0.494409  0.752823  0.448318  1
  O  O508  1  0.132463  0.752799  0.381316  1
  O  O509  1  0.888091  0.864625  0.379946  1
  O  O510  1  0.249868  0.677204  0.337451  1
  O  O511  1  0.889000  0.933831  0.337417  1
  O  O512  1  0.610968  0.822868  0.490825  1
  O  O513  1  0.645622  0.927219  0.423396  1
  O  O514  1  0.993246  0.683843  0.372770  1
  O  O515  1  0.993191  0.822870  0.372797  1
  O  O516  1  0.249880  0.927200  0.490850  1
  O  O517  1  0.888975  0.683832  0.423379  1
  O  O518  1  0.645609  0.677217  0.455493  1
  O  O519  1  0.993268  0.933841  0.337430  1
  O  O520  1  0.888840  0.677212  0.337448  1
  O  O521  1  0.249988  0.822842  0.490831  1
  O  O522  1  0.888864  0.927193  0.423411  1
  O  O523  1  0.854231  0.822861  0.372782  1
  O  O524  1  0.506650  0.927206  0.490836  1
  O  O525  1  0.506670  0.677195  0.455481  1
  O  O526  1  0.506593  0.816235  0.455497  1
  O  O527  1  0.610859  0.816236  0.404887  1
  O  O528  1  0.499965  0.898210  0.292810  1
  O  O529  1  0.898091  0.101844  0.292833  1
  O  O530  1  0.148204  0.250002  0.463514  1
  O  O531  1  0.453525  0.148172  0.364744  1
  O  O532  1  0.601669  0.250010  0.364763  1
  O  O533  1  0.351653  -0.000000  0.414142  1
  O  O534  1  0.148089  0.101841  0.463540  1
  O  O535  1  0.898190  0.250030  0.463512  1
  O  O536  1  0.601763  0.148179  0.364736  1
  O  O537  1  0.351706  0.249989  0.364756  1
  O  O538  1  0.351775  0.148166  0.414130  1
  O  O539  1  0.046338  0.101838  0.463529  1
  O  O540  1  0.462039  0.077009  0.320701  1
  O  O541  1  0.845909  0.077040  0.320694  1
  O  O542  1  0.133839  0.327003  0.460988  1
  O  O543  1  0.249945  0.327015  0.404636  1
  O  O544  1  0.366169  0.210788  0.404627  1
  O  O545  1  0.462033  0.327016  0.404652  1
  O  O546  1  0.845907  0.327062  0.461007  1
  O  O547  1  0.462119  0.210808  0.404627  1
  O  O548  1  0.133790  0.077024  0.423630  1
  O  O549  1  0.249890  0.077041  0.423642  1
  O  O550  1  0.037728  0.039220  0.507587  1
  O  O551  1  0.366076  0.172984  0.367280  1
  O  O552  1  0.249970  0.172977  0.423632  1
  O  O553  1  0.133737  0.289200  0.423642  1
  O  O554  1  0.037824  0.173015  0.423621  1
  O  O555  1  0.653957  0.172988  0.367269  1
  O  O556  1  0.037744  0.289228  0.423652  1
  O  O557  1  0.133687  0.039223  0.461024  1
  O  O558  1  0.867270  0.135426  0.324336  1
  O  O559  1  0.250010  0.247198  0.446966  1
  O  O560  1  0.388085  0.247203  0.379953  1
  O  O561  1  0.505471  0.247206  0.379951  1
  O  O562  1  0.867370  0.247260  0.446965  1
  O  O563  1  0.111762  0.135424  0.448330  1
  O  O564  1  0.994387  0.002809  0.503949  1
  O  O565  1  0.632486  0.002791  0.503959  1
  O  O566  1  0.249899  0.252790  0.381304  1
  O  O567  1  0.388102  0.114589  0.381291  1
  O  O568  1  0.111830  0.252787  0.448314  1
  O  O569  1  0.994404  0.252815  0.448321  1
  O  O570  1  0.632584  0.114616  0.381284  1
  O  O571  1  0.632478  0.252800  0.381312  1
  O  O572  1  0.249851  0.002808  0.446994  1
  O  O573  1  0.111778  0.002809  0.446983  1
  O  O574  1  0.493208  0.072824  0.337437  1
  O  O575  1  0.749876  0.177192  0.337446  1
  O  O576  1  0.111013  0.322841  0.490823  1
  O  O577  1  0.493280  0.183798  0.372772  1
  O  O578  1  0.493206  0.322836  0.372791  1
  O  O579  1  0.388996  0.183811  0.423385  1
  O  O580  1  0.110966  0.072863  0.404870  1
  O  O581  1  0.145627  0.177185  0.455492  1
  O  O582  1  0.749984  0.072833  0.337424  1
  O  O583  1  0.388889  0.177161  0.337448  1
  O  O584  1  0.749980  0.322858  0.490830  1
  O  O585  1  0.354271  0.322813  0.372774  1
  O  O586  1  0.354234  0.072824  0.404878  1
  O  O587  1  0.006656  0.177186  0.455480  1
  O  O588  1  0.110859  0.066210  0.490858  1
  O  O589  1  0.006616  0.316202  0.455501  1
  O  O590  1  0.110897  0.316201  0.404888  1
  O  O591  1  0.006576  0.066212  0.490849  1
  O  O592  1  0.000000  0.101835  0.292838  1
  O  O593  1  0.898193  0.000000  0.292820  1
  O  O594  1  0.148151  0.000000  0.414133  1
  O  O595  1  0.499880  0.101821  0.292840  1
  O  O596  1  0.601677  0.500023  0.292834  1
  O  O597  1  0.898103  0.601844  0.292825  1
  O  O598  1  0.148140  0.351818  0.414138  1
  O  O599  1  0.453484  0.648203  0.364754  1
  O  O600  1  0.898108  0.351854  0.463542  1
  O  O601  1  0.148217  0.499993  0.414119  1
  O  O602  1  0.148107  0.601833  0.463536  1
  O  O603  1  0.453515  0.398186  0.364743  1
  O  O604  1  0.898204  0.500010  0.292812  1
  O  O605  1  0.601762  0.398195  0.292817  1
  O  O606  1  0.601761  0.648185  0.364731  1
  O  O607  1  0.046393  0.351813  0.463522  1
  O  O608  1  0.351759  0.648178  0.414136  1
  O  O609  1  0.351670  0.500005  0.414145  1
  O  O610  1  0.046378  0.601814  0.463519  1
  O  O611  1  0.351786  0.398170  0.364725  1
  O  O612  1  0.462041  0.577022  0.320702  1
  O  O613  1  0.845911  0.577045  0.320688  1
  O  O614  1  0.462118  0.460823  0.320690  1
  O  O615  1  0.133821  0.577009  0.423622  1
  O  O616  1  0.249915  0.577027  0.423639  1
  O  O617  1  0.366159  0.460802  0.367249  1
  O  O618  1  0.037842  0.423001  0.507570  1
  O  O619  1  0.653952  0.423010  0.507583  1
  O  O620  1  0.037735  0.539225  0.507585  1
  O  O621  1  0.366060  0.422993  0.404642  1
  O  O622  1  0.249986  0.422971  0.404620  1
  O  O623  1  0.133722  0.539206  0.461017  1
  O  O624  1  0.505476  0.497217  0.324327  1
  O  O625  1  0.867254  0.635445  0.324333  1
  O  O626  1  0.867387  0.497236  0.324312  1
  O  O627  1  0.111816  0.385398  0.446976  1
  O  O628  1  0.867274  0.385446  0.446999  1
  O  O629  1  0.250007  0.497205  0.381272  1
  O  O630  1  0.111787  0.635409  0.448323  1
  O  O631  1  0.388068  0.497216  0.381291  1
  O  O632  1  0.994411  0.502803  0.503942  1
  O  O633  1  0.632585  0.364631  0.503939  1
  O  O634  1  0.632479  0.502820  0.503962  1
  O  O635  1  0.388100  0.614591  0.381294  1
  O  O636  1  0.632602  0.614611  0.381273  1
  O  O637  1  0.249871  0.502802  0.446994  1
  O  O638  1  0.388109  0.364591  0.379936  1
  O  O639  1  0.111836  0.502781  0.446970  1
  O  O640  1  0.493200  0.572848  0.337441  1
  O  O641  1  0.389000  0.433821  0.337412  1
  O  O642  1  0.145665  0.427165  0.423385  1
  O  O643  1  0.749885  0.427208  0.490855  1
  O  O644  1  0.111008  0.572832  0.404859  1
  O  O645  1  0.493273  0.433814  0.337425  1
  O  O646  1  0.749988  0.572841  0.337415  1
  O  O647  1  0.388864  0.427173  0.423407  1
  O  O648  1  0.006693  0.427163  0.490831  1
  O  O649  1  0.354235  0.572828  0.404883  1
  O  O650  1  0.110864  0.566215  0.490857  1
  O  O651  1  0.006611  0.566196  0.490839  1
  O  O652  1  0.500005  0.648199  0.414121  1
  O  O653  1  0.000000  0.601851  0.292838  1
  O  O654  1  0.499862  0.601845  0.292845  1
  O  O655  1  -0.000000  0.398203  0.535433  1
  O  O656  1  0.499865  0.351830  0.414154  1
  O  O657  1  0.601669  0.000000  0.292834  1
  O  O658  1  0.148190  0.750005  0.463518  1
  O  O659  1  0.148079  0.851841  0.414153  1
  O  O660  1  0.601667  0.750016  0.364754  1
  O  O661  1  0.898092  0.851833  0.463546  1
  O  O662  1  0.453468  0.898199  0.364746  1
  O  O663  1  0.601747  0.898175  0.292815  1
  O  O664  1  0.898185  0.750003  0.463511  1
  O  O665  1  0.351641  0.750014  0.364773  1
  O  O666  1  0.046345  0.851821  0.463536  1
  O  O667  1  0.000000  0.851834  0.414160  1
  O  O668  1  0.351724  0.898190  0.364733  1
  O  O669  1  0.462100  0.960811  0.320687  1
  O  O670  1  0.133806  0.827013  0.460996  1
  O  O671  1  0.249870  0.827048  0.404655  1
  O  O672  1  0.366136  0.710809  0.404636  1
  O  O673  1  0.462033  0.827022  0.404644  1
  O  O674  1  0.845902  0.827033  0.461007  1
  O  O675  1  0.462120  0.710810  0.404624  1
  O  O676  1  0.366114  0.960814  0.367252  1
  O  O677  1  0.037836  0.923002  0.507575  1
  O  O678  1  0.653946  0.922982  0.507581  1
  O  O679  1  0.366037  0.672998  0.367292  1
  O  O680  1  0.249963  0.672981  0.423634  1
  O  O681  1  0.133688  0.789216  0.423655  1
  O  O682  1  0.037824  0.672994  0.423619  1
  O  O683  1  0.653954  0.672998  0.367263  1
  O  O684  1  0.037725  0.789216  0.423659  1
  O  O685  1  0.366029  0.923001  0.404643  1
  O  O686  1  0.249920  0.923000  0.404633  1
  O  O687  1  0.505458  0.997203  0.324326  1
  O  O688  1  0.867393  0.997233  0.324318  1
  O  O689  1  0.249986  0.747211  0.446973  1
  O  O690  1  0.111743  0.885425  0.446993  1
  O  O691  1  0.388017  0.747241  0.379970  1
  O  O692  1  0.505460  0.747214  0.379949  1
  O  O693  1  0.867258  0.885428  0.447003  1
  O  O694  1  0.867379  0.747227  0.446961  1
  O  O695  1  0.249956  0.997222  0.381280  1
  O  O696  1  0.388027  0.997229  0.381292  1
  O  O697  1  0.632571  0.864609  0.503938  1
  O  O698  1  0.249852  0.752803  0.381317  1
  O  O699  1  0.111814  0.752787  0.448319  1
  O  O700  1  0.994391  0.752797  0.448323  1
  O  O701  1  0.632482  0.752813  0.381300  1
  O  O702  1  0.388055  0.864610  0.379943  1
  O  O703  1  0.749876  0.677196  0.337437  1
  O  O704  1  0.388953  0.933829  0.337415  1
  O  O705  1  0.110995  0.822846  0.490829  1
  O  O706  1  0.145591  0.927197  0.423402  1
  O  O707  1  0.493250  0.683820  0.372776  1
  O  O708  1  0.493179  0.822844  0.372788  1
  O  O709  1  0.749875  0.927178  0.490857  1
  O  O710  1  0.388989  0.683817  0.423386  1
  O  O711  1  0.145635  0.677177  0.455490  1
  O  O712  1  0.493239  0.933811  0.337426  1
  O  O713  1  0.388853  0.677181  0.337458  1
  O  O714  1  0.749973  0.822828  0.490827  1
  O  O715  1  0.388852  0.927180  0.423402  1
  O  O716  1  0.354195  0.822843  0.372789  1
  O  O717  1  0.006656  0.927169  0.490844  1
  O  O718  1  0.006670  0.677162  0.455476  1
  O  O719  1  0.006586  0.816193  0.455510  1
  O  O720  1  0.110858  0.816205  0.404899  1
  O  O721  1  0.499864  0.851838  0.414145  1
  O  O722  1  0.398104  0.101854  0.535459  1
  O  O723  1  0.648181  0.250045  0.706142  1
  O  O724  1  0.953493  0.148223  0.607370  1
  O  O725  1  0.101669  0.250032  0.607387  1
  O  O726  1  0.398176  0.000000  0.535442  1
  O  O727  1  0.000000  0.148224  0.656748  1
  O  O728  1  0.851675  0.000000  0.656775  1
  O  O729  1  0.648100  0.101867  0.706175  1
  O  O730  1  0.398180  0.250029  0.706147  1
  O  O731  1  0.101744  0.148212  0.607358  1
  O  O732  1  0.851659  0.250038  0.607383  1
  O  O733  1  0.851742  0.148223  0.656755  1
  O  O734  1  0.546371  0.101847  0.706157  1
  O  O735  1  0.962033  0.077035  0.563325  1
  O  O736  1  0.345900  0.077049  0.563320  1
  O  O737  1  0.633787  0.327060  0.703622  1
  O  O738  1  0.749898  0.327059  0.647267  1
  O  O739  1  0.866137  0.210844  0.647252  1
  O  O740  1  0.962032  0.327046  0.647279  1
  O  O741  1  0.345900  0.327048  0.703638  1
  O  O742  1  0.962108  0.210839  0.647247  1
  O  O743  1  0.633817  0.077046  0.666260  1
  O  O744  1  0.749901  0.077063  0.666277  1
  O  O745  1  0.866046  0.173028  0.609906  1
  O  O746  1  0.749941  0.173021  0.666259  1
  O  O747  1  0.633700  0.289243  0.666275  1
  O  O748  1  0.537815  0.173027  0.666257  1
  O  O749  1  0.153945  0.173004  0.609894  1
  O  O750  1  0.537730  0.289231  0.666283  1
  O  O751  1  0.633721  0.039237  0.703653  1
  O  O752  1  0.367276  0.135420  0.566963  1
  O  O753  1  0.749975  0.247256  0.689593  1
  O  O754  1  0.888046  0.247252  0.622579  1
  O  O755  1  0.005454  0.247247  0.622577  1
  O  O756  1  0.367374  0.247236  0.689596  1
  O  O757  1  0.611771  0.135447  0.690965  1
  O  O758  1  0.749861  0.252829  0.623934  1
  O  O759  1  0.888076  0.114634  0.623916  1
  O  O760  1  0.611787  0.252833  0.690949  1
  O  O761  1  0.494377  0.252836  0.690960  1
  O  O762  1  0.132579  0.114617  0.623901  1
  O  O763  1  0.132480  0.252808  0.623936  1
  O  O764  1  0.749876  0.002834  0.689626  1
  O  O765  1  0.611825  0.002814  0.689608  1
  O  O766  1  0.993197  0.072870  0.580061  1
  O  O767  1  0.249880  0.177202  0.580071  1
  O  O768  1  0.610988  0.322877  0.733452  1
  O  O769  1  0.993251  0.183852  0.615395  1
  O  O770  1  0.993194  0.322875  0.615420  1
  O  O771  1  0.888968  0.183856  0.666009  1
  O  O772  1  0.610992  0.072868  0.647501  1
  O  O773  1  0.645623  0.177218  0.698123  1
  O  O774  1  0.249965  0.072858  0.580045  1
  O  O775  1  0.888855  0.177196  0.580074  1
  O  O776  1  0.249972  0.322854  0.733461  1
  O  O777  1  0.854226  0.322861  0.615407  1
  O  O778  1  0.854224  0.072870  0.647509  1
  O  O779  1  0.506660  0.177201  0.698115  1
  O  O780  1  0.610883  0.066215  0.733489  1
  O  O781  1  0.506580  0.316239  0.698135  1
  O  O782  1  0.610864  0.316222  0.647520  1
  O  O783  1  0.506606  0.066225  0.733475  1
  O  O784  1  0.101674  0.000000  0.535454  1
  O  O785  1  0.499986  0.148209  0.656756  1
  O  O786  1  0.648199  0.000000  0.656759  1
  O  O787  1  0.101646  0.500043  0.535459  1
  O  O788  1  0.398092  0.601866  0.535464  1
  O  O789  1  0.648092  0.351864  0.656771  1
  O  O790  1  0.953471  0.648231  0.607373  1
  O  O791  1  0.398085  0.351863  0.706174  1
  O  O792  1  0.000000  0.648191  0.656742  1
  O  O793  1  0.648195  0.500029  0.656757  1
  O  O794  1  0.648095  0.601864  0.706171  1
  O  O795  1  0.953496  0.398221  0.607373  1
  O  O796  1  0.398184  0.500035  0.535445  1
  O  O797  1  0.101748  0.398210  0.535445  1
  O  O798  1  0.101753  0.648195  0.607355  1
  O  O799  1  0.546342  0.351865  0.706158  1
  O  O800  1  0.851735  0.648215  0.656753  1
  O  O801  1  0.851663  0.500038  0.656773  1
  O  O802  1  0.546359  0.601845  0.706156  1
  O  O803  1  0.851760  0.398203  0.607359  1
  O  O804  1  0.962007  0.577053  0.563326  1
  O  O805  1  0.345895  0.577055  0.563324  1
  O  O806  1  0.962116  0.460826  0.563312  1
  O  O807  1  0.633811  0.577037  0.666257  1
  O  O808  1  0.749894  0.577059  0.666273  1
  O  O809  1  0.866153  0.460826  0.609875  1
  O  O810  1  0.866044  0.423030  0.647273  1
  O  O811  1  0.749958  0.423007  0.647258  1
  O  O812  1  0.633708  0.539238  0.703653  1
  O  O813  1  0.005439  0.497250  0.566954  1
  O  O814  1  0.367266  0.635429  0.566968  1
  O  O815  1  0.367372  0.497246  0.566946  1
  O  O816  1  0.611764  0.385449  0.689610  1
  O  O817  1  0.367267  0.385424  0.689626  1
  O  O818  1  0.749995  0.497232  0.623904  1
  O  O819  1  0.611769  0.635436  0.690960  1
  O  O820  1  0.888039  0.497252  0.623922  1
  O  O821  1  0.888056  0.614641  0.623916  1
  O  O822  1  0.132584  0.614601  0.623898  1
  O  O823  1  0.749866  0.502833  0.689625  1
  O  O824  1  0.888090  0.364623  0.622568  1
  O  O825  1  0.611811  0.502815  0.689609  1
  O  O826  1  0.993165  0.572887  0.580064  1
  O  O827  1  0.888989  0.433833  0.580039  1
  O  O828  1  0.645626  0.427211  0.666021  1
  O  O829  1  0.249865  0.427210  0.733483  1
  O  O830  1  0.611007  0.572857  0.647491  1
  O  O831  1  0.993255  0.433847  0.580054  1
  O  O832  1  0.249977  0.572846  0.580045  1
  O  O833  1  0.888866  0.427202  0.666033  1
  O  O834  1  0.506651  0.427215  0.733466  1
  O  O835  1  0.854218  0.572865  0.647505  1
  O  O836  1  0.610868  0.566231  0.733490  1
  O  O837  1  0.506592  0.566233  0.733478  1
  O  O838  1  0.499990  0.398220  0.535436  1
  O  O839  1  0.000000  0.351845  0.656778  1
  O  O840  1  0.000000  0.898200  0.535436  1
  O  O841  1  0.648169  0.750040  0.706137  1
  O  O842  1  0.648081  0.851880  0.656769  1
  O  O843  1  0.101659  0.750025  0.607391  1
  O  O844  1  0.398105  0.851853  0.706160  1
  O  O845  1  0.953501  0.898222  0.607376  1
  O  O846  1  0.101769  0.898193  0.535444  1
  O  O847  1  0.398203  0.750022  0.706137  1
  O  O848  1  0.851655  0.750046  0.607383  1
  O  O849  1  0.546346  0.851859  0.706151  1
  O  O850  1  0.851763  0.898207  0.607362  1
  O  O851  1  0.962135  0.960818  0.563313  1
  O  O852  1  0.633791  0.827049  0.703616  1
  O  O853  1  0.749890  0.827065  0.647266  1
  O  O854  1  0.866127  0.710840  0.647254  1
  O  O855  1  0.962018  0.827036  0.647282  1
  O  O856  1  0.345907  0.827043  0.703631  1
  O  O857  1  0.962118  0.710814  0.647244  1
  O  O858  1  0.866155  0.960832  0.609880  1
  O  O859  1  0.866020  0.673045  0.609908  1
  O  O860  1  0.749934  0.673015  0.666255  1
  O  O861  1  0.633699  0.789251  0.666267  1
  O  O862  1  0.537840  0.673013  0.666246  1
  O  O863  1  0.153942  0.672993  0.609894  1
  O  O864  1  0.537747  0.789229  0.666269  1
  O  O865  1  0.866049  0.923031  0.647275  1
  O  O866  1  0.749963  0.923005  0.647259  1
  O  O867  1  0.005476  0.997230  0.566951  1
  O  O868  1  0.367358  0.997242  0.566942  1
  O  O869  1  0.749968  0.747243  0.689592  1
  O  O870  1  0.611761  0.885448  0.689607  1
  O  O871  1  0.888031  0.747256  0.622583  1
  O  O872  1  0.005453  0.747233  0.622577  1
  O  O873  1  0.367271  0.885421  0.689617  1
  O  O874  1  0.367385  0.747228  0.689592  1
  O  O875  1  0.749996  0.997240  0.623908  1
  O  O876  1  0.888047  0.997256  0.623925  1
  O  O877  1  0.749849  0.752851  0.623930  1
  O  O878  1  0.611795  0.752826  0.690938  1
  O  O879  1  0.494409  0.752823  0.690943  1
  O  O880  1  0.132463  0.752799  0.623942  1
  O  O881  1  0.888091  0.864625  0.622571  1
  O  O882  1  0.249868  0.677204  0.580076  1
  O  O883  1  0.889000  0.933831  0.580043  1
  O  O884  1  0.610968  0.822868  0.733450  1
  O  O885  1  0.645622  0.927219  0.666022  1
  O  O886  1  0.993246  0.683843  0.615395  1
  O  O887  1  0.993191  0.822870  0.615423  1
  O  O888  1  0.249880  0.927200  0.733475  1
  O  O889  1  0.888975  0.683832  0.666004  1
  O  O890  1  0.645609  0.677217  0.698118  1
  O  O891  1  0.993268  0.933841  0.580056  1
  O  O892  1  0.888840  0.677212  0.580073  1
  O  O893  1  0.249988  0.822842  0.733457  1
  O  O894  1  0.888864  0.927193  0.666037  1
  O  O895  1  0.854231  0.822861  0.615408  1
  O  O896  1  0.506650  0.927206  0.733461  1
  O  O897  1  0.506670  0.677195  0.698107  1
  O  O898  1  0.506593  0.816235  0.698122  1
  O  O899  1  0.610859  0.816236  0.647513  1
  O  O900  1  0.499965  0.898210  0.535435  1
  O  O901  1  0.898091  0.101844  0.535458  1
  O  O902  1  0.148204  0.250002  0.706140  1
  O  O903  1  0.453525  0.148172  0.607370  1
  O  O904  1  0.601669  0.250010  0.607389  1
  O  O905  1  0.351653  0.000000  0.656767  1
  O  O906  1  0.148089  0.101841  0.706166  1
  O  O907  1  0.898190  0.250030  0.706137  1
  O  O908  1  0.601763  0.148179  0.607362  1
  O  O909  1  0.351706  0.249989  0.607381  1
  O  O910  1  0.351775  0.148166  0.656756  1
  O  O911  1  0.046338  0.101838  0.706155  1
  O  O912  1  0.462039  0.077009  0.563326  1
  O  O913  1  0.845909  0.077040  0.563320  1
  O  O914  1  0.133839  0.327003  0.703613  1
  O  O915  1  0.249945  0.327015  0.647262  1
  O  O916  1  0.366169  0.210788  0.647253  1
  O  O917  1  0.462033  0.327016  0.647278  1
  O  O918  1  0.845907  0.327062  0.703633  1
  O  O919  1  0.462119  0.210808  0.647252  1
  O  O920  1  0.133790  0.077024  0.666256  1
  O  O921  1  0.249890  0.077041  0.666268  1
  O  O922  1  0.366076  0.172984  0.609906  1
  O  O923  1  0.249970  0.172977  0.666257  1
  O  O924  1  0.133737  0.289200  0.666267  1
  O  O925  1  0.037824  0.173015  0.666247  1
  O  O926  1  0.653957  0.172988  0.609895  1
  O  O927  1  0.037744  0.289228  0.666278  1
  O  O928  1  0.133687  0.039223  0.703650  1
  O  O929  1  0.867270  0.135426  0.566962  1
  O  O930  1  0.250010  0.247198  0.689592  1
  O  O931  1  0.388085  0.247203  0.622578  1
  O  O932  1  0.505471  0.247206  0.622576  1
  O  O933  1  0.867370  0.247260  0.689591  1
  O  O934  1  0.111762  0.135424  0.690956  1
  O  O935  1  0.249899  0.252790  0.623929  1
  O  O936  1  0.388102  0.114589  0.623917  1
  O  O937  1  0.111830  0.252787  0.690940  1
  O  O938  1  0.994404  0.252815  0.690947  1
  O  O939  1  0.632584  0.114616  0.623909  1
  O  O940  1  0.632478  0.252800  0.623938  1
  O  O941  1  0.249851  0.002808  0.689619  1
  O  O942  1  0.111778  0.002809  0.689609  1
  O  O943  1  0.493208  0.072824  0.580063  1
  O  O944  1  0.749876  0.177192  0.580072  1
  O  O945  1  0.111013  0.322841  0.733449  1
  O  O946  1  0.493280  0.183798  0.615397  1
  O  O947  1  0.493206  0.322836  0.615417  1
  O  O948  1  0.388996  0.183811  0.666011  1
  O  O949  1  0.110966  0.072863  0.647496  1
  O  O950  1  0.145627  0.177185  0.698118  1
  O  O951  1  0.749984  0.072833  0.580050  1
  O  O952  1  0.388889  0.177161  0.580073  1
  O  O953  1  0.749980  0.322858  0.733455  1
  O  O954  1  0.354271  0.322813  0.615399  1
  O  O955  1  0.354234  0.072824  0.647504  1
  O  O956  1  0.006656  0.177186  0.698106  1
  O  O957  1  0.110859  0.066210  0.733484  1
  O  O958  1  0.006616  0.316202  0.698127  1
  O  O959  1  0.110897  0.316201  0.647514  1
  O  O960  1  0.006576  0.066212  0.733475  1
  O  O961  1  0.000000  0.101835  0.535463  1
  O  O962  1  0.898193  0.000000  0.535446  1
  O  O963  1  0.148151  0.000000  0.656759  1
  O  O964  1  0.499880  0.101821  0.535466  1
  O  O965  1  0.601677  0.500023  0.535459  1
  O  O966  1  0.898103  0.601844  0.535451  1
  O  O967  1  0.148140  0.351818  0.656764  1
  O  O968  1  0.453484  0.648203  0.607380  1
  O  O969  1  0.898108  0.351854  0.706168  1
  O  O970  1  0.148217  0.499993  0.656744  1
  O  O971  1  0.148107  0.601833  0.706161  1
  O  O972  1  0.453515  0.398186  0.607369  1
  O  O973  1  0.898204  0.500010  0.535437  1
  O  O974  1  0.601762  0.398195  0.535442  1
  O  O975  1  0.601761  0.648185  0.607357  1
  O  O976  1  0.046393  0.351813  0.706148  1
  O  O977  1  0.351759  0.648178  0.656761  1
  O  O978  1  0.351670  0.500005  0.656771  1
  O  O979  1  0.046378  0.601814  0.706145  1
  O  O980  1  0.351786  0.398170  0.607350  1
  O  O981  1  0.462041  0.577022  0.563327  1
  O  O982  1  0.845911  0.577045  0.563314  1
  O  O983  1  0.462118  0.460823  0.563315  1
  O  O984  1  0.133821  0.577009  0.666247  1
  O  O985  1  0.249915  0.577027  0.666265  1
  O  O986  1  0.366159  0.460802  0.609875  1
  O  O987  1  0.366060  0.422993  0.647267  1
  O  O988  1  0.249986  0.422971  0.647246  1
  O  O989  1  0.133722  0.539206  0.703643  1
  O  O990  1  0.505476  0.497217  0.566953  1
  O  O991  1  0.867254  0.635445  0.566959  1
  O  O992  1  0.867387  0.497236  0.566938  1
  O  O993  1  0.111816  0.385398  0.689602  1
  O  O994  1  0.867274  0.385446  0.689625  1
  O  O995  1  0.250007  0.497205  0.623897  1
  O  O996  1  0.111787  0.635409  0.690948  1
  O  O997  1  0.388068  0.497216  0.623917  1
  O  O998  1  0.388100  0.614591  0.623920  1
  O  O999  1  0.632602  0.614611  0.623899  1
  O  O1000  1  0.249871  0.502802  0.689620  1
  O  O1001  1  0.388109  0.364591  0.622562  1
  O  O1002  1  0.111836  0.502781  0.689595  1
  O  O1003  1  0.493200  0.572848  0.580066  1
  O  O1004  1  0.389000  0.433821  0.580037  1
  O  O1005  1  0.145665  0.427165  0.666011  1
  O  O1006  1  0.749885  0.427208  0.733481  1
  O  O1007  1  0.111008  0.572832  0.647485  1
  O  O1008  1  0.493273  0.433814  0.580050  1
  O  O1009  1  0.749988  0.572841  0.580041  1
  O  O1010  1  0.388864  0.427173  0.666033  1
  O  O1011  1  0.006693  0.427163  0.733456  1
  O  O1012  1  0.354235  0.572828  0.647509  1
  O  O1013  1  0.110864  0.566215  0.733483  1
  O  O1014  1  0.006611  0.566196  0.733465  1
  O  O1015  1  0.500005  0.648199  0.656746  1
  O  O1016  1  0.000000  0.601851  0.535464  1
  O  O1017  1  0.499862  0.601845  0.535471  1
  O  O1018  1  0.499865  0.351830  0.656779  1
  O  O1019  1  0.601669  -0.000000  0.535459  1
  O  O1020  1  0.148190  0.750005  0.706144  1
  O  O1021  1  0.148079  0.851841  0.656779  1
  O  O1022  1  0.601667  0.750016  0.607379  1
  O  O1023  1  0.898092  0.851833  0.706172  1
  O  O1024  1  0.453468  0.898199  0.607372  1
  O  O1025  1  0.601747  0.898175  0.535441  1
  O  O1026  1  0.898185  0.750003  0.706136  1
  O  O1027  1  0.351641  0.750014  0.607398  1
  O  O1028  1  0.046345  0.851821  0.706162  1
  O  O1029  1  0.000000  0.851834  0.656785  1
  O  O1030  1  0.351724  0.898190  0.607359  1
  O  O1031  1  0.462100  0.960811  0.563313  1
  O  O1032  1  0.133806  0.827013  0.703621  1
  O  O1033  1  0.249870  0.827048  0.647280  1
  O  O1034  1  0.366136  0.710809  0.647262  1
  O  O1035  1  0.462033  0.827022  0.647270  1
  O  O1036  1  0.845902  0.827033  0.703632  1
  O  O1037  1  0.462120  0.710810  0.647249  1
  O  O1038  1  0.366114  0.960814  0.609878  1
  O  O1039  1  0.366037  0.672998  0.609917  1
  O  O1040  1  0.249963  0.672981  0.666260  1
  O  O1041  1  0.133688  0.789216  0.666281  1
  O  O1042  1  0.037824  0.672994  0.666245  1
  O  O1043  1  0.653954  0.672998  0.609888  1
  O  O1044  1  0.037725  0.789216  0.666284  1
  O  O1045  1  0.366029  0.923001  0.647268  1
  O  O1046  1  0.249920  0.923000  0.647258  1
  O  O1047  1  0.505458  0.997203  0.566952  1
  O  O1048  1  0.867393  0.997233  0.566944  1
  O  O1049  1  0.249986  0.747211  0.689599  1
  O  O1050  1  0.111743  0.885425  0.689619  1
  O  O1051  1  0.388017  0.747241  0.622596  1
  O  O1052  1  0.505460  0.747214  0.622574  1
  O  O1053  1  0.867258  0.885428  0.689628  1
  O  O1054  1  0.867379  0.747227  0.689586  1
  O  O1055  1  0.249956  0.997222  0.623905  1
  O  O1056  1  0.388027  0.997229  0.623918  1
  O  O1057  1  0.249852  0.752803  0.623943  1
  O  O1058  1  0.111814  0.752787  0.690945  1
  O  O1059  1  0.994391  0.752797  0.690949  1
  O  O1060  1  0.632482  0.752813  0.623926  1
  O  O1061  1  0.388055  0.864610  0.622569  1
  O  O1062  1  0.749876  0.677196  0.580063  1
  O  O1063  1  0.388953  0.933829  0.580041  1
  O  O1064  1  0.110995  0.822846  0.733455  1
  O  O1065  1  0.145591  0.927197  0.666028  1
  O  O1066  1  0.493250  0.683820  0.615401  1
  O  O1067  1  0.493179  0.822844  0.615414  1
  O  O1068  1  0.749875  0.927178  0.733483  1
  O  O1069  1  0.388989  0.683817  0.666012  1
  O  O1070  1  0.145635  0.677177  0.698116  1
  O  O1071  1  0.493239  0.933811  0.580051  1
  O  O1072  1  0.388853  0.677181  0.580084  1
  O  O1073  1  0.749973  0.822828  0.733453  1
  O  O1074  1  0.388852  0.927180  0.666028  1
  O  O1075  1  0.354195  0.822843  0.615414  1
  O  O1076  1  0.006656  0.927169  0.733469  1
  O  O1077  1  0.006670  0.677162  0.698101  1
  O  O1078  1  0.006586  0.816193  0.698136  1
  O  O1079  1  0.110858  0.816205  0.647525  1
  O  O1080  1  0.499864  0.851838  0.656771  1
  Si  Si1081  1  0.928134  0.124867  0.119479  1
  Si  Si1082  1  0.660566  0.053158  0.223569  1
  Si  Si1083  1  0.660552  0.303157  0.162827  1
  Si  Si1084  1  0.660661  0.286277  0.223531  1
  Si  Si1085  1  0.928174  0.196930  0.137053  1
  Si  Si1086  1  0.016724  0.286267  0.137076  1
  Si  Si1087  1  0.927888  0.196934  0.180195  1
  Si  Si1088  1  0.660684  0.036264  0.162810  1
  Si  Si1089  1  0.660990  0.125224  0.205978  1
  Si  Si1090  1  0.338571  0.286253  0.223539  1
  Si  Si1091  1  0.016796  0.196920  0.137047  1
  Si  Si1092  1  0.838815  0.286267  0.137067  1
  Si  Si1093  1  0.839282  0.196928  0.180197  1
  Si  Si1094  1  0.838823  0.036269  0.162823  1
  Si  Si1095  1  0.571722  0.125209  0.205963  1
  Si  Si1096  1  0.571969  0.053123  0.266557  1
  Si  Si1097  1  0.839175  0.213806  0.119492  1
  Si  Si1098  1  0.838854  0.124861  0.162814  1
  Si  Si1099  1  0.571664  0.303157  0.205972  1
  Si  Si1100  1  0.483121  0.213807  0.205957  1
  Si  Si1101  1  0.161350  0.124847  0.119464  1
  Si  Si1102  1  0.571953  0.303131  0.162831  1
  Si  Si1103  1  0.571694  0.053141  0.223554  1
  Si  Si1104  1  0.483054  0.053151  0.266551  1
  Si  Si1105  1  0.161281  0.213797  0.119490  1
  Si  Si1106  1  0.572051  0.124862  0.162811  1
  Si  Si1107  1  0.483034  0.303161  0.205983  1
  Si  Si1108  1  0.661023  0.213815  0.205957  1
  Si  Si1109  1  0.660556  0.553159  0.223568  1
  Si  Si1110  1  0.928135  0.374867  0.137068  1
  Si  Si1111  1  0.483043  0.553166  0.266556  1
  Si  Si1112  1  0.661036  0.463803  0.180208  1
  Si  Si1113  1  0.928106  0.624882  0.119482  1
  Si  Si1114  1  0.572077  0.624849  0.162799  1
  Si  Si1115  1  0.660984  0.375222  0.180210  1
  Si  Si1116  1  0.338485  0.375212  0.223564  1
  Si  Si1117  1  0.660684  0.536254  0.162805  1
  Si  Si1118  1  0.660983  0.625220  0.205974  1
  Si  Si1119  1  0.928178  0.446923  0.119472  1
  Si  Si1120  1  0.927801  0.375207  0.180221  1
  Si  Si1121  1  0.571701  0.375222  0.223546  1
  Si  Si1122  1  0.838815  0.536265  0.162819  1
  Si  Si1123  1  0.571718  0.625200  0.205959  1
  Si  Si1124  1  0.839305  0.446904  0.119458  1
  Si  Si1125  1  0.483124  0.463814  0.266541  1
  Si  Si1126  1  0.161358  0.374845  0.266539  1
  Si  Si1127  1  0.571954  0.553147  0.266561  1
  Si  Si1128  1  0.838846  0.624857  0.162811  1
  Si  Si1129  1  0.161355  0.624833  0.119462  1
  Si  Si1130  1  0.839178  0.463809  0.180221  1
  Si  Si1131  1  0.838868  0.374847  0.137054  1
  Si  Si1132  1  0.571679  0.553144  0.223554  1
  Si  Si1133  1  0.161269  0.463805  0.266551  1
  Si  Si1134  1  0.572056  0.374869  0.266533  1
  Si  Si1135  1  0.661014  0.713811  0.205951  1
  Si  Si1136  1  0.928138  0.874867  0.137070  1
  Si  Si1137  1  0.661042  0.963804  0.180209  1
  Si  Si1138  1  0.660540  0.803176  0.162823  1
  Si  Si1139  1  0.660655  0.786267  0.223527  1
  Si  Si1140  1  0.660979  0.875228  0.180208  1
  Si  Si1141  1  0.928160  0.696931  0.137055  1
  Si  Si1142  1  0.016716  0.786257  0.137078  1
  Si  Si1143  1  0.338496  0.875206  0.223555  1
  Si  Si1144  1  0.927904  0.696902  0.180190  1
  Si  Si1145  1  0.928183  0.946927  0.119476  1
  Si  Si1146  1  0.338585  0.786246  0.223533  1
  Si  Si1147  1  0.927783  0.875196  0.180226  1
  Si  Si1148  1  0.016801  0.696903  0.137045  1
  Si  Si1149  1  0.838811  0.786270  0.137067  1
  Si  Si1150  1  0.571703  0.875214  0.223540  1
  Si  Si1151  1  0.839278  0.696916  0.180196  1
  Si  Si1152  1  0.839306  0.946911  0.119463  1
  Si  Si1153  1  0.483121  0.963806  0.266537  1
  Si  Si1154  1  0.161370  0.874832  0.266538  1
  Si  Si1155  1  0.839161  0.713823  0.119492  1
  Si  Si1156  1  0.571671  0.803154  0.205962  1
  Si  Si1157  1  0.483147  0.713796  0.205945  1
  Si  Si1158  1  0.571958  0.803139  0.162820  1
  Si  Si1159  1  0.839188  0.963808  0.180222  1
  Si  Si1160  1  0.838874  0.874846  0.137055  1
  Si  Si1161  1  0.161281  0.963792  0.266548  1
  Si  Si1162  1  0.572037  0.874857  0.266532  1
  Si  Si1163  1  0.161272  0.713790  0.119494  1
  Si  Si1164  1  0.483057  0.803152  0.205967  1
  Si  Si1165  1  0.160697  0.286227  0.223527  1
  Si  Si1166  1  0.428203  0.196878  0.137054  1
  Si  Si1167  1  0.516730  0.286233  0.137075  1
  Si  Si1168  1  0.427899  0.196906  0.180201  1
  Si  Si1169  1  0.160644  0.036250  0.162807  1
  Si  Si1170  1  0.160981  0.125200  0.205969  1
  Si  Si1171  1  0.838574  0.286267  0.223533  1
  Si  Si1172  1  0.516815  0.196880  0.137050  1
  Si  Si1173  1  0.338866  0.286218  0.137063  1
  Si  Si1174  1  0.339319  0.196870  0.180197  1
  Si  Si1175  1  0.338812  0.036240  0.162815  1
  Si  Si1176  1  0.071707  0.125188  0.205957  1
  Si  Si1177  1  0.071944  0.053128  0.266556  1
  Si  Si1178  1  0.339212  0.213764  0.119492  1
  Si  Si1179  1  0.338880  0.124813  0.162814  1
  Si  Si1180  1  0.071704  0.303111  0.205964  1
  Si  Si1181  1  0.983135  0.213794  0.205946  1
  Si  Si1182  1  0.661367  0.124827  0.119467  1
  Si  Si1183  1  0.071961  0.303135  0.162828  1
  Si  Si1184  1  0.071652  0.053134  0.223553  1
  Si  Si1185  1  0.983037  0.053139  0.266551  1
  Si  Si1186  1  0.661280  0.213786  0.119493  1
  Si  Si1187  1  0.072049  0.124857  0.162802  1
  Si  Si1188  1  0.983060  0.303143  0.205975  1
  Si  Si1189  1  0.161048  0.213775  0.205953  1
  Si  Si1190  1  0.428162  0.124819  0.119479  1
  Si  Si1191  1  0.160591  0.303119  0.162821  1
  Si  Si1192  1  0.160542  0.053139  0.223562  1
  Si  Si1193  1  0.160563  0.553132  0.223559  1
  Si  Si1194  1  0.161034  0.375174  0.180202  1
  Si  Si1195  1  0.838501  0.375220  0.223560  1
  Si  Si1196  1  0.160693  0.536227  0.162795  1
  Si  Si1197  1  0.161000  0.625189  0.205964  1
  Si  Si1198  1  0.428193  0.446892  0.119469  1
  Si  Si1199  1  0.427797  0.375181  0.180221  1
  Si  Si1200  1  0.071756  0.375165  0.223535  1
  Si  Si1201  1  0.338832  0.536232  0.162817  1
  Si  Si1202  1  0.071735  0.625170  0.205949  1
  Si  Si1203  1  0.339315  0.446882  0.119455  1
  Si  Si1204  1  0.983150  0.463778  0.266533  1
  Si  Si1205  1  0.661363  0.374848  0.266538  1
  Si  Si1206  1  0.071942  0.553139  0.266557  1
  Si  Si1207  1  0.338873  0.624819  0.162818  1
  Si  Si1208  1  0.661371  0.624832  0.119460  1
  Si  Si1209  1  0.339185  0.463776  0.180218  1
  Si  Si1210  1  0.338898  0.374809  0.137044  1
  Si  Si1211  1  0.071696  0.553111  0.223543  1
  Si  Si1212  1  0.661287  0.463802  0.266552  1
  Si  Si1213  1  0.072076  0.374841  0.266528  1
  Si  Si1214  1  0.983057  0.553135  0.266544  1
  Si  Si1215  1  0.072065  0.624830  0.162797  1
  Si  Si1216  1  0.428138  0.624836  0.119487  1
  Si  Si1217  1  0.161066  0.463765  0.180194  1
  Si  Si1218  1  0.428156  0.374829  0.137062  1
  Si  Si1219  1  0.160998  0.963795  0.180209  1
  Si  Si1220  1  0.428115  0.874840  0.137065  1
  Si  Si1221  1  0.160673  0.786236  0.223534  1
  Si  Si1222  1  0.160960  0.875206  0.180220  1
  Si  Si1223  1  0.428158  0.696909  0.137065  1
  Si  Si1224  1  0.516723  0.786241  0.137068  1
  Si  Si1225  1  0.838492  0.875193  0.223561  1
  Si  Si1226  1  0.427910  0.696901  0.180196  1
  Si  Si1227  1  0.428147  0.946904  0.119472  1
  Si  Si1228  1  0.838571  0.786237  0.223531  1
  Si  Si1229  1  0.427795  0.875186  0.180214  1
  Si  Si1230  1  0.516808  0.696887  0.137048  1
  Si  Si1231  1  0.338791  0.786250  0.137081  1
  Si  Si1232  1  0.071709  0.875176  0.223548  1
  Si  Si1233  1  0.339296  0.696885  0.180204  1
  Si  Si1234  1  0.339267  0.946894  0.119460  1
  Si  Si1235  1  0.983135  0.963779  0.266540  1
  Si  Si1236  1  0.661355  0.874820  0.266535  1
  Si  Si1237  1  0.339164  0.713781  0.119505  1
  Si  Si1238  1  0.071663  0.803118  0.205975  1
  Si  Si1239  1  0.983129  0.713773  0.205945  1
  Si  Si1240  1  0.071940  0.803125  0.162835  1
  Si  Si1241  1  0.339164  0.963783  0.180216  1
  Si  Si1242  1  0.338831  0.874837  0.137055  1
  Si  Si1243  1  0.661279  0.963774  0.266552  1
  Si  Si1244  1  0.072075  0.874839  0.266531  1
  Si  Si1245  1  0.661280  0.713794  0.119483  1
  Si  Si1246  1  0.983041  0.803128  0.205981  1
  Si  Si1247  1  0.161041  0.713775  0.205955  1
  Si  Si1248  1  0.160542  0.803134  0.162834  1
  Si  Si1249  1  0.928134  0.124867  0.362105  1
  Si  Si1250  1  0.660566  0.053158  0.466195  1
  Si  Si1251  1  0.660552  0.303157  0.405453  1
  Si  Si1252  1  0.016733  0.036257  0.319109  1
  Si  Si1253  1  0.338496  0.125208  0.319113  1
  Si  Si1254  1  0.660661  0.286277  0.466157  1
  Si  Si1255  1  0.928174  0.196930  0.379679  1
  Si  Si1256  1  0.016724  0.286267  0.379702  1
  Si  Si1257  1  0.927888  0.196934  0.422821  1
  Si  Si1258  1  0.660684  0.036264  0.405435  1
  Si  Si1259  1  0.660990  0.125224  0.448603  1
  Si  Si1260  1  0.338564  0.036258  0.319098  1
  Si  Si1261  1  0.927793  0.125195  0.319117  1
  Si  Si1262  1  0.338571  0.286253  0.466165  1
  Si  Si1263  1  0.016796  0.196920  0.379673  1
  Si  Si1264  1  0.838815  0.286267  0.379692  1
  Si  Si1265  1  0.839282  0.196928  0.422823  1
  Si  Si1266  1  0.838823  0.036269  0.405449  1
  Si  Si1267  1  0.571722  0.125209  0.448589  1
  Si  Si1268  1  0.571969  0.053123  0.509182  1
  Si  Si1269  1  0.839175  0.213806  0.362118  1
  Si  Si1270  1  0.838854  0.124861  0.405440  1
  Si  Si1271  1  0.571664  0.303157  0.448598  1
  Si  Si1272  1  0.483121  0.213807  0.448583  1
  Si  Si1273  1  0.161350  0.124847  0.362089  1
  Si  Si1274  1  0.571953  0.303131  0.405456  1
  Si  Si1275  1  0.571694  0.053141  0.466179  1
  Si  Si1276  1  0.483054  0.053151  0.509177  1
  Si  Si1277  1  0.161281  0.213797  0.362116  1
  Si  Si1278  1  0.572051  0.124862  0.405437  1
  Si  Si1279  1  0.483034  0.303161  0.448608  1
  Si  Si1280  1  0.661023  0.213815  0.448583  1
  Si  Si1281  1  0.660556  0.553159  0.466194  1
  Si  Si1282  1  0.928135  0.374867  0.379693  1
  Si  Si1283  1  0.483043  0.553166  0.509182  1
  Si  Si1284  1  0.661036  0.463803  0.422834  1
  Si  Si1285  1  0.928106  0.624882  0.362108  1
  Si  Si1286  1  0.572077  0.624849  0.405425  1
  Si  Si1287  1  0.016699  0.536276  0.319112  1
  Si  Si1288  1  0.338486  0.625216  0.319118  1
  Si  Si1289  1  0.927908  0.446912  0.319089  1
  Si  Si1290  1  0.660984  0.375222  0.422835  1
  Si  Si1291  1  0.338485  0.375212  0.466190  1
  Si  Si1292  1  0.660684  0.536254  0.405430  1
  Si  Si1293  1  0.660983  0.625220  0.448599  1
  Si  Si1294  1  0.928178  0.446923  0.362098  1
  Si  Si1295  1  0.338569  0.536259  0.319102  1
  Si  Si1296  1  0.927773  0.625214  0.319117  1
  Si  Si1297  1  0.016797  0.446916  0.319100  1
  Si  Si1298  1  0.927801  0.375207  0.422847  1
  Si  Si1299  1  0.571701  0.375222  0.466171  1
  Si  Si1300  1  0.838815  0.536265  0.405445  1
  Si  Si1301  1  0.571718  0.625200  0.448585  1
  Si  Si1302  1  0.839305  0.446904  0.362084  1
  Si  Si1303  1  0.483124  0.463814  0.509166  1
  Si  Si1304  1  0.161358  0.374845  0.509164  1
  Si  Si1305  1  0.571954  0.553147  0.509187  1
  Si  Si1306  1  0.838846  0.624857  0.405437  1
  Si  Si1307  1  0.161355  0.624833  0.362087  1
  Si  Si1308  1  0.839178  0.463809  0.422847  1
  Si  Si1309  1  0.838868  0.374847  0.379679  1
  Si  Si1310  1  0.571679  0.553144  0.466180  1
  Si  Si1311  1  0.161269  0.463805  0.509177  1
  Si  Si1312  1  0.572056  0.374869  0.509159  1
  Si  Si1313  1  0.661014  0.713811  0.448577  1
  Si  Si1314  1  0.928138  0.874867  0.379696  1
  Si  Si1315  1  0.661042  0.963804  0.422835  1
  Si  Si1316  1  0.660540  0.803176  0.405449  1
  Si  Si1317  1  0.927920  0.946908  0.319093  1
  Si  Si1318  1  0.660655  0.786267  0.466153  1
  Si  Si1319  1  0.660979  0.875228  0.422834  1
  Si  Si1320  1  0.928160  0.696931  0.379681  1
  Si  Si1321  1  0.016716  0.786257  0.379704  1
  Si  Si1322  1  0.338496  0.875206  0.466180  1
  Si  Si1323  1  0.927904  0.696902  0.422815  1
  Si  Si1324  1  0.928183  0.946927  0.362102  1
  Si  Si1325  1  0.016821  0.946902  0.319100  1
  Si  Si1326  1  0.338585  0.786246  0.466159  1
  Si  Si1327  1  0.927783  0.875196  0.422852  1
  Si  Si1328  1  0.016801  0.696903  0.379671  1
  Si  Si1329  1  0.838811  0.786270  0.379693  1
  Si  Si1330  1  0.571703  0.875214  0.466166  1
  Si  Si1331  1  0.839278  0.696916  0.422822  1
  Si  Si1332  1  0.839306  0.946911  0.362089  1
  Si  Si1333  1  0.483121  0.963806  0.509163  1
  Si  Si1334  1  0.161370  0.874832  0.509164  1
  Si  Si1335  1  0.839161  0.713823  0.362118  1
  Si  Si1336  1  0.571671  0.803154  0.448588  1
  Si  Si1337  1  0.483147  0.713796  0.448571  1
  Si  Si1338  1  0.571958  0.803139  0.405446  1
  Si  Si1339  1  0.839188  0.963808  0.422848  1
  Si  Si1340  1  0.838874  0.874846  0.379681  1
  Si  Si1341  1  0.161281  0.963792  0.509173  1
  Si  Si1342  1  0.572037  0.874857  0.509158  1
  Si  Si1343  1  0.161272  0.713790  0.362119  1
  Si  Si1344  1  0.483057  0.803152  0.448593  1
  Si  Si1345  1  0.516728  0.036226  0.319113  1
  Si  Si1346  1  0.838496  0.125201  0.319112  1
  Si  Si1347  1  0.160697  0.286227  0.466153  1
  Si  Si1348  1  0.428203  0.196878  0.379679  1
  Si  Si1349  1  0.516730  0.286233  0.379701  1
  Si  Si1350  1  0.427899  0.196906  0.422827  1
  Si  Si1351  1  0.160644  0.036250  0.405433  1
  Si  Si1352  1  0.160981  0.125200  0.448595  1
  Si  Si1353  1  0.838582  0.036242  0.319101  1
  Si  Si1354  1  0.427809  0.125173  0.319118  1
  Si  Si1355  1  0.838574  0.286267  0.466159  1
  Si  Si1356  1  0.516815  0.196880  0.379676  1
  Si  Si1357  1  0.338866  0.286218  0.379688  1
  Si  Si1358  1  0.339319  0.196870  0.422822  1
  Si  Si1359  1  0.338812  0.036240  0.405440  1
  Si  Si1360  1  0.071707  0.125188  0.448582  1
  Si  Si1361  1  0.071944  0.053128  0.509182  1
  Si  Si1362  1  0.339212  0.213764  0.362118  1
  Si  Si1363  1  0.338880  0.124813  0.405440  1
  Si  Si1364  1  0.071704  0.303111  0.448589  1
  Si  Si1365  1  0.983135  0.213794  0.448571  1
  Si  Si1366  1  0.661367  0.124827  0.362093  1
  Si  Si1367  1  0.071961  0.303135  0.405454  1
  Si  Si1368  1  0.071652  0.053134  0.466179  1
  Si  Si1369  1  0.983037  0.053139  0.509177  1
  Si  Si1370  1  0.661280  0.213786  0.362118  1
  Si  Si1371  1  0.072049  0.124857  0.405427  1
  Si  Si1372  1  0.983060  0.303143  0.448600  1
  Si  Si1373  1  0.161048  0.213775  0.448579  1
  Si  Si1374  1  0.428162  0.124819  0.362105  1
  Si  Si1375  1  0.160591  0.303119  0.405447  1
  Si  Si1376  1  0.160542  0.053139  0.466188  1
  Si  Si1377  1  0.160563  0.553132  0.466185  1
  Si  Si1378  1  0.516735  0.536244  0.319113  1
  Si  Si1379  1  0.838494  0.625208  0.319106  1
  Si  Si1380  1  0.427901  0.446918  0.319094  1
  Si  Si1381  1  0.161034  0.375174  0.422828  1
  Si  Si1382  1  0.838501  0.375220  0.466186  1
  Si  Si1383  1  0.160693  0.536227  0.405421  1
  Si  Si1384  1  0.161000  0.625189  0.448590  1
  Si  Si1385  1  0.428193  0.446892  0.362095  1
  Si  Si1386  1  0.838587  0.536246  0.319093  1
  Si  Si1387  1  0.427796  0.625189  0.319123  1
  Si  Si1388  1  0.516813  0.446894  0.319100  1
  Si  Si1389  1  0.427797  0.375181  0.422847  1
  Si  Si1390  1  0.071756  0.375165  0.466161  1
  Si  Si1391  1  0.338832  0.536232  0.405442  1
  Si  Si1392  1  0.071735  0.625170  0.448574  1
  Si  Si1393  1  0.339315  0.446882  0.362081  1
  Si  Si1394  1  0.983150  0.463778  0.509158  1
  Si  Si1395  1  0.661363  0.374848  0.509163  1
  Si  Si1396  1  0.071942  0.553139  0.509182  1
  Si  Si1397  1  0.338873  0.624819  0.405444  1
  Si  Si1398  1  0.661371  0.624832  0.362085  1
  Si  Si1399  1  0.339185  0.463776  0.422843  1
  Si  Si1400  1  0.338898  0.374809  0.379669  1
  Si  Si1401  1  0.071696  0.553111  0.466168  1
  Si  Si1402  1  0.661287  0.463802  0.509177  1
  Si  Si1403  1  0.072076  0.374841  0.509154  1
  Si  Si1404  1  0.983057  0.553135  0.509170  1
  Si  Si1405  1  0.072065  0.624830  0.405423  1
  Si  Si1406  1  0.428138  0.624836  0.362112  1
  Si  Si1407  1  0.161066  0.463765  0.422820  1
  Si  Si1408  1  0.428156  0.374829  0.379688  1
  Si  Si1409  1  0.160998  0.963795  0.422835  1
  Si  Si1410  1  0.428115  0.874840  0.379690  1
  Si  Si1411  1  0.427875  0.946912  0.319093  1
  Si  Si1412  1  0.160673  0.786236  0.466159  1
  Si  Si1413  1  0.160960  0.875206  0.422846  1
  Si  Si1414  1  0.428158  0.696909  0.379690  1
  Si  Si1415  1  0.516723  0.786241  0.379694  1
  Si  Si1416  1  0.838492  0.875193  0.466187  1
  Si  Si1417  1  0.427910  0.696901  0.422822  1
  Si  Si1418  1  0.428147  0.946904  0.362098  1
  Si  Si1419  1  0.516795  0.946881  0.319097  1
  Si  Si1420  1  0.838571  0.786237  0.466157  1
  Si  Si1421  1  0.427795  0.875186  0.422840  1
  Si  Si1422  1  0.516808  0.696887  0.379674  1
  Si  Si1423  1  0.338791  0.786250  0.379707  1
  Si  Si1424  1  0.071709  0.875176  0.466174  1
  Si  Si1425  1  0.339296  0.696885  0.422829  1
  Si  Si1426  1  0.339267  0.946894  0.362085  1
  Si  Si1427  1  0.983135  0.963779  0.509165  1
  Si  Si1428  1  0.661355  0.874820  0.509161  1
  Si  Si1429  1  0.339164  0.713781  0.362131  1
  Si  Si1430  1  0.071663  0.803118  0.448601  1
  Si  Si1431  1  0.983129  0.713773  0.448571  1
  Si  Si1432  1  0.071940  0.803125  0.405461  1
  Si  Si1433  1  0.339164  0.963783  0.422841  1
  Si  Si1434  1  0.338831  0.874837  0.379680  1
  Si  Si1435  1  0.661279  0.963774  0.509177  1
  Si  Si1436  1  0.072075  0.874839  0.509157  1
  Si  Si1437  1  0.661280  0.713794  0.362109  1
  Si  Si1438  1  0.983041  0.803128  0.448606  1
  Si  Si1439  1  0.161041  0.713775  0.448581  1
  Si  Si1440  1  0.160542  0.803134  0.405460  1
  Si  Si1441  1  0.928134  0.124867  0.604731  1
  Si  Si1442  1  0.660566  0.053158  0.708820  1
  Si  Si1443  1  0.660552  0.303157  0.648079  1
  Si  Si1444  1  0.016733  0.036257  0.561735  1
  Si  Si1445  1  0.338496  0.125208  0.561739  1
  Si  Si1446  1  0.660661  0.286277  0.708782  1
  Si  Si1447  1  0.928174  0.196930  0.622304  1
  Si  Si1448  1  0.016724  0.286267  0.622327  1
  Si  Si1449  1  0.927888  0.196934  0.665447  1
  Si  Si1450  1  0.660684  0.036264  0.648061  1
  Si  Si1451  1  0.660990  0.125224  0.691229  1
  Si  Si1452  1  0.338564  0.036258  0.561724  1
  Si  Si1453  1  0.927793  0.125195  0.561743  1
  Si  Si1454  1  0.338571  0.286253  0.708790  1
  Si  Si1455  1  0.016796  0.196920  0.622298  1
  Si  Si1456  1  0.838815  0.286267  0.622318  1
  Si  Si1457  1  0.839282  0.196928  0.665448  1
  Si  Si1458  1  0.838823  0.036269  0.648074  1
  Si  Si1459  1  0.571722  0.125209  0.691214  1
  Si  Si1460  1  0.839175  0.213806  0.604744  1
  Si  Si1461  1  0.838854  0.124861  0.648065  1
  Si  Si1462  1  0.571664  0.303157  0.691223  1
  Si  Si1463  1  0.483121  0.213807  0.691209  1
  Si  Si1464  1  0.161350  0.124847  0.604715  1
  Si  Si1465  1  0.571953  0.303131  0.648082  1
  Si  Si1466  1  0.571694  0.053141  0.708805  1
  Si  Si1467  1  0.161281  0.213797  0.604741  1
  Si  Si1468  1  0.572051  0.124862  0.648063  1
  Si  Si1469  1  0.483034  0.303161  0.691234  1
  Si  Si1470  1  0.661023  0.213815  0.691208  1
  Si  Si1471  1  0.660556  0.553159  0.708819  1
  Si  Si1472  1  0.928135  0.374867  0.622319  1
  Si  Si1473  1  0.661036  0.463803  0.665460  1
  Si  Si1474  1  0.928106  0.624882  0.604733  1
  Si  Si1475  1  0.572077  0.624849  0.648051  1
  Si  Si1476  1  0.016699  0.536276  0.561738  1
  Si  Si1477  1  0.338486  0.625216  0.561744  1
  Si  Si1478  1  0.927908  0.446912  0.561715  1
  Si  Si1479  1  0.660984  0.375222  0.665461  1
  Si  Si1480  1  0.338485  0.375212  0.708816  1
  Si  Si1481  1  0.660684  0.536254  0.648056  1
  Si  Si1482  1  0.660983  0.625220  0.691225  1
  Si  Si1483  1  0.928178  0.446923  0.604724  1
  Si  Si1484  1  0.338569  0.536259  0.561728  1
  Si  Si1485  1  0.927773  0.625214  0.561743  1
  Si  Si1486  1  0.016797  0.446916  0.561725  1
  Si  Si1487  1  0.927801  0.375207  0.665473  1
  Si  Si1488  1  0.571701  0.375222  0.708797  1
  Si  Si1489  1  0.838815  0.536265  0.648071  1
  Si  Si1490  1  0.571718  0.625200  0.691210  1
  Si  Si1491  1  0.839305  0.446904  0.604709  1
  Si  Si1492  1  0.838846  0.624857  0.648063  1
  Si  Si1493  1  0.161355  0.624833  0.604713  1
  Si  Si1494  1  0.839178  0.463809  0.665472  1
  Si  Si1495  1  0.838868  0.374847  0.622305  1
  Si  Si1496  1  0.571679  0.553144  0.708806  1
  Si  Si1497  1  0.661014  0.713811  0.691202  1
  Si  Si1498  1  0.928138  0.874867  0.622322  1
  Si  Si1499  1  0.661042  0.963804  0.665460  1
  Si  Si1500  1  0.660540  0.803176  0.648074  1
  Si  Si1501  1  0.927920  0.946908  0.561718  1
  Si  Si1502  1  0.660655  0.786267  0.708778  1
  Si  Si1503  1  0.660979  0.875228  0.665459  1
  Si  Si1504  1  0.928160  0.696931  0.622307  1
  Si  Si1505  1  0.016716  0.786257  0.622330  1
  Si  Si1506  1  0.338496  0.875206  0.708806  1
  Si  Si1507  1  0.927904  0.696902  0.665441  1
  Si  Si1508  1  0.928183  0.946927  0.604728  1
  Si  Si1509  1  0.016821  0.946902  0.561725  1
  Si  Si1510  1  0.338585  0.786246  0.708784  1
  Si  Si1511  1  0.927783  0.875196  0.665478  1
  Si  Si1512  1  0.016801  0.696903  0.622296  1
  Si  Si1513  1  0.838811  0.786270  0.622319  1
  Si  Si1514  1  0.571703  0.875214  0.708792  1
  Si  Si1515  1  0.839278  0.696916  0.665447  1
  Si  Si1516  1  0.839306  0.946911  0.604715  1
  Si  Si1517  1  0.839161  0.713823  0.604743  1
  Si  Si1518  1  0.571671  0.803154  0.691214  1
  Si  Si1519  1  0.483147  0.713796  0.691196  1
  Si  Si1520  1  0.571958  0.803139  0.648071  1
  Si  Si1521  1  0.839188  0.963808  0.665473  1
  Si  Si1522  1  0.838874  0.874846  0.622306  1
  Si  Si1523  1  0.161272  0.713790  0.604745  1
  Si  Si1524  1  0.483057  0.803152  0.691219  1
  Si  Si1525  1  0.516728  0.036226  0.561738  1
  Si  Si1526  1  0.838496  0.125201  0.561737  1
  Si  Si1527  1  0.160697  0.286227  0.708778  1
  Si  Si1528  1  0.428203  0.196878  0.622305  1
  Si  Si1529  1  0.516730  0.286233  0.622327  1
  Si  Si1530  1  0.427899  0.196906  0.665452  1
  Si  Si1531  1  0.160644  0.036250  0.648059  1
  Si  Si1532  1  0.160981  0.125200  0.691221  1
  Si  Si1533  1  0.838582  0.036242  0.561727  1
  Si  Si1534  1  0.427809  0.125173  0.561744  1
  Si  Si1535  1  0.838574  0.286267  0.708784  1
  Si  Si1536  1  0.516815  0.196880  0.622302  1
  Si  Si1537  1  0.338866  0.286218  0.622314  1
  Si  Si1538  1  0.339319  0.196870  0.665448  1
  Si  Si1539  1  0.338812  0.036240  0.648066  1
  Si  Si1540  1  0.071707  0.125188  0.691208  1
  Si  Si1541  1  0.339212  0.213764  0.604743  1
  Si  Si1542  1  0.338880  0.124813  0.648065  1
  Si  Si1543  1  0.071704  0.303111  0.691215  1
  Si  Si1544  1  0.983135  0.213794  0.691197  1
  Si  Si1545  1  0.661367  0.124827  0.604719  1
  Si  Si1546  1  0.071961  0.303135  0.648079  1
  Si  Si1547  1  0.071652  0.053134  0.708805  1
  Si  Si1548  1  0.661280  0.213786  0.604744  1
  Si  Si1549  1  0.072049  0.124857  0.648053  1
  Si  Si1550  1  0.983060  0.303143  0.691226  1
  Si  Si1551  1  0.161048  0.213775  0.691205  1
  Si  Si1552  1  0.428162  0.124819  0.604731  1
  Si  Si1553  1  0.160591  0.303119  0.648072  1
  Si  Si1554  1  0.160542  0.053139  0.708814  1
  Si  Si1555  1  0.160563  0.553132  0.708810  1
  Si  Si1556  1  0.516735  0.536244  0.561739  1
  Si  Si1557  1  0.838494  0.625208  0.561731  1
  Si  Si1558  1  0.427901  0.446918  0.561720  1
  Si  Si1559  1  0.161034  0.375174  0.665453  1
  Si  Si1560  1  0.838501  0.375220  0.708811  1
  Si  Si1561  1  0.160693  0.536227  0.648047  1
  Si  Si1562  1  0.161000  0.625189  0.691215  1
  Si  Si1563  1  0.428193  0.446892  0.604721  1
  Si  Si1564  1  0.838587  0.536246  0.561719  1
  Si  Si1565  1  0.427796  0.625189  0.561748  1
  Si  Si1566  1  0.516813  0.446894  0.561725  1
  Si  Si1567  1  0.427797  0.375181  0.665473  1
  Si  Si1568  1  0.071756  0.375165  0.708787  1
  Si  Si1569  1  0.338832  0.536232  0.648068  1
  Si  Si1570  1  0.071735  0.625170  0.691200  1
  Si  Si1571  1  0.339315  0.446882  0.604707  1
  Si  Si1572  1  0.338873  0.624819  0.648069  1
  Si  Si1573  1  0.661371  0.624832  0.604711  1
  Si  Si1574  1  0.339185  0.463776  0.665469  1
  Si  Si1575  1  0.338898  0.374809  0.622295  1
  Si  Si1576  1  0.071696  0.553111  0.708794  1
  Si  Si1577  1  0.072065  0.624830  0.648048  1
  Si  Si1578  1  0.428138  0.624836  0.604738  1
  Si  Si1579  1  0.161066  0.463765  0.665446  1
  Si  Si1580  1  0.428156  0.374829  0.622313  1
  Si  Si1581  1  0.160998  0.963795  0.665461  1
  Si  Si1582  1  0.428115  0.874840  0.622316  1
  Si  Si1583  1  0.427875  0.946912  0.561719  1
  Si  Si1584  1  0.160673  0.786236  0.708785  1
  Si  Si1585  1  0.160960  0.875206  0.665471  1
  Si  Si1586  1  0.428158  0.696909  0.622316  1
  Si  Si1587  1  0.516723  0.786241  0.622320  1
  Si  Si1588  1  0.838492  0.875193  0.708813  1
  Si  Si1589  1  0.427910  0.696901  0.665447  1
  Si  Si1590  1  0.428147  0.946904  0.604724  1
  Si  Si1591  1  0.516795  0.946881  0.561723  1
  Si  Si1592  1  0.838571  0.786237  0.708783  1
  Si  Si1593  1  0.427795  0.875186  0.665465  1
  Si  Si1594  1  0.516808  0.696887  0.622299  1
  Si  Si1595  1  0.338791  0.786250  0.622333  1
  Si  Si1596  1  0.071709  0.875176  0.708800  1
  Si  Si1597  1  0.339296  0.696885  0.665455  1
  Si  Si1598  1  0.339267  0.946894  0.604711  1
  Si  Si1599  1  0.339164  0.713781  0.604756  1
  Si  Si1600  1  0.071663  0.803118  0.691227  1
  Si  Si1601  1  0.983129  0.713773  0.691196  1
  Si  Si1602  1  0.071940  0.803125  0.648086  1
  Si  Si1603  1  0.339164  0.963783  0.665467  1
  Si  Si1604  1  0.338831  0.874837  0.622306  1
  Si  Si1605  1  0.661280  0.713794  0.604734  1
  Si  Si1606  1  0.983041  0.803128  0.691232  1
  Si  Si1607  1  0.161041  0.713775  0.691207  1
  Si  Si1608  1  0.160542  0.803134  0.648086  1
  H  H1609  1  0.993197  0.072870  0.085885  1
  H  H1610  1  0.249880  0.177202  0.085895  1
  H  H1611  1  0.249965  0.072858  0.085869  1
  H  H1612  1  0.888855  0.177196  0.085898  1
  H  H1613  1  0.993165  0.572887  0.085888  1
  H  H1614  1  0.888989  0.433833  0.085864  1
  H  H1615  1  0.993255  0.433847  0.085878  1
  H  H1616  1  0.249977  0.572846  0.085869  1
  H  H1617  1  0.249868  0.677204  0.085901  1
  H  H1618  1  0.889000  0.933831  0.085867  1
  H  H1619  1  0.993268  0.933841  0.085881  1
  H  H1620  1  0.888840  0.677212  0.085898  1
  H  H1621  1  0.493208  0.072824  0.085887  1
  H  H1622  1  0.749876  0.177192  0.085897  1
  H  H1623  1  0.749984  0.072833  0.085875  1
  H  H1624  1  0.388889  0.177161  0.085898  1
  H  H1625  1  0.493200  0.572848  0.085891  1
  H  H1626  1  0.389000  0.433821  0.085862  1
  H  H1627  1  0.493273  0.433814  0.085875  1
  H  H1628  1  0.749988  0.572841  0.085866  1
  H  H1629  1  0.749876  0.677196  0.085887  1
  H  H1630  1  0.388953  0.933829  0.085866  1
  H  H1631  1  0.493239  0.933811  0.085876  1
  H  H1632  1  0.388853  0.677181  0.085908  1
  H  H1633  1  0.610988  0.322877  0.742376  1
  H  H1634  1  0.249972  0.322854  0.742385  1
  H  H1635  1  0.610883  0.066215  0.742413  1
  H  H1636  1  0.506606  0.066225  0.742399  1
  H  H1637  1  0.249865  0.427210  0.742407  1
  H  H1638  1  0.506651  0.427215  0.742390  1
  H  H1639  1  0.610868  0.566231  0.742414  1
  H  H1640  1  0.506592  0.566233  0.742402  1
  H  H1641  1  0.610968  0.822868  0.742374  1
  H  H1642  1  0.249880  0.927200  0.742399  1
  H  H1643  1  0.249988  0.822842  0.742381  1
  H  H1644  1  0.506650  0.927206  0.742385  1
  H  H1645  1  0.111013  0.322841  0.742373  1
  H  H1646  1  0.749980  0.322858  0.742379  1
  H  H1647  1  0.110859  0.066210  0.742408  1
  H  H1648  1  0.006576  0.066212  0.742399  1
  H  H1649  1  0.749885  0.427208  0.742405  1
  H  H1650  1  0.006693  0.427163  0.742380  1
  H  H1651  1  0.110864  0.566215  0.742407  1
  H  H1652  1  0.006611  0.566196  0.742389  1
  H  H1653  1  0.110995  0.822846  0.742379  1
  H  H1654  1  0.749875  0.927178  0.742407  1
  H  H1655  1  0.749973  0.822828  0.742377  1
  H  H1656  1  0.006656  0.927169  0.742393  1
