# generated using pymatgen
data_Si14H2O29
_symmetry_space_group_name_H-M   'P 1'
_cell_length_a   34.60850121
_cell_length_b   34.61039952
_cell_length_c   76.38190470
_cell_angle_alpha   90.00000000
_cell_angle_beta   45.00674678
_cell_angle_gamma   59.99402408
_symmetry_Int_Tables_number   1
_chemical_formula_structural   Si14H2O29
_chemical_formula_sum   'Si336 H48 O696'
_cell_volume   45748.1682706
_cell_formula_units_Z   24
loop_
 _symmetry_equiv_pos_site_id
 _symmetry_equiv_pos_as_xyz
  1  'x, y, z'
loop_
 _atom_site_type_symbol
 _atom_site_label
 _atom_site_symmetry_multiplicity
 _atom_site_fract_x
 _atom_site_fract_y
 _atom_site_fract_z
 _atom_site_occupancy
  O  O1  1  0.648181  0.250045  0.291653  1
  O  O2  1  0.953493  0.148223  0.161240  1
  O  O3  1  0.101669  0.250032  0.161262  1
  O  O4  1  -0.000000  0.148224  0.226436  1
  O  O5  1  0.851675  0.000000  0.226471  1
  O  O6  1  0.648100  0.101867  0.291697  1
  O  O7  1  0.398180  0.250029  0.291660  1
  O  O8  1  0.101744  0.148212  0.161224  1
  O  O9  1  0.851659  0.250038  0.161257  1
  O  O10  1  0.851742  0.148223  0.226445  1
  O  O11  1  0.546371  0.101847  0.291673  1
  O  O12  1  0.633787  0.327060  0.288326  1
  O  O13  1  0.749898  0.327059  0.213917  1
  O  O14  1  0.866137  0.210844  0.213898  1
  O  O15  1  0.962032  0.327046  0.213933  1
  O  O16  1  0.345900  0.327048  0.288347  1
  O  O17  1  0.962108  0.210839  0.213892  1
  O  O18  1  0.633817  0.077046  0.238995  1
  O  O19  1  0.749901  0.077063  0.239017  1
  O  O20  1  0.537748  0.039223  0.349842  1
  O  O21  1  0.866046  0.173028  0.164588  1
  O  O22  1  0.749941  0.173021  0.238993  1
  O  O23  1  0.633700  0.289243  0.239015  1
  O  O24  1  0.537815  0.173027  0.238991  1
  O  O25  1  0.153945  0.173004  0.164572  1
  O  O26  1  0.537730  0.289231  0.239026  1
  O  O27  1  0.633721  0.039237  0.288367  1
  O  O28  1  0.749975  0.247256  0.269802  1
  O  O29  1  0.888046  0.247252  0.181320  1
  O  O30  1  0.005454  0.247247  0.181319  1
  O  O31  1  0.367374  0.247236  0.269807  1
  O  O32  1  0.611771  0.135447  0.271614  1
  O  O33  1  0.494393  0.002827  0.345038  1
  O  O34  1  0.132471  0.002801  0.345048  1
  O  O35  1  0.749861  0.252829  0.183109  1
  O  O36  1  0.888076  0.114634  0.183086  1
  O  O37  1  0.611787  0.252833  0.271594  1
  O  O38  1  0.494377  0.252836  0.271607  1
  O  O39  1  0.132579  0.114617  0.183066  1
  O  O40  1  0.132480  0.252808  0.183112  1
  O  O41  1  0.749876  0.002834  0.269846  1
  O  O42  1  0.611825  0.002814  0.269823  1
  O  O43  1  0.993197  0.072870  0.125182  1
  O  O44  1  0.249880  0.177202  0.125195  1
  O  O45  1  0.610988  0.322877  0.327712  1
  O  O46  1  0.993251  0.183852  0.171836  1
  O  O47  1  0.993194  0.322875  0.171868  1
  O  O48  1  0.888968  0.183856  0.238663  1
  O  O49  1  0.610992  0.072868  0.214227  1
  O  O50  1  0.645623  0.177218  0.281066  1
  O  O51  1  0.249965  0.072858  0.125161  1
  O  O52  1  0.888855  0.177196  0.125199  1
  O  O53  1  0.249972  0.322854  0.327724  1
  O  O54  1  0.854226  0.322861  0.171851  1
  O  O55  1  0.854224  0.072870  0.214237  1
  O  O56  1  0.506660  0.177201  0.281054  1
  O  O57  1  0.610883  0.066215  0.327761  1
  O  O58  1  0.506580  0.316239  0.281081  1
  O  O59  1  0.610864  0.316222  0.214252  1
  O  O60  1  0.506606  0.066225  0.327743  1
  O  O61  1  0.499986  0.148209  0.226446  1
  O  O62  1  0.648199  -0.000000  0.226451  1
  O  O63  1  0.648092  0.351864  0.226466  1
  O  O64  1  0.953471  0.648231  0.161243  1
  O  O65  1  0.398085  0.351863  0.291695  1
  O  O66  1  0.000000  0.648191  0.226428  1
  O  O67  1  0.648195  0.500029  0.226447  1
  O  O68  1  0.648095  0.601864  0.291692  1
  O  O69  1  0.953496  0.398221  0.161244  1
  O  O70  1  0.101753  0.648195  0.161219  1
  O  O71  1  0.546342  0.351865  0.291674  1
  O  O72  1  0.851735  0.648215  0.226443  1
  O  O73  1  0.851663  0.500038  0.226469  1
  O  O74  1  0.546359  0.601845  0.291672  1
  O  O75  1  0.851760  0.398203  0.161225  1
  O  O76  1  0.633811  0.577037  0.238991  1
  O  O77  1  0.749894  0.577059  0.239012  1
  O  O78  1  0.866153  0.460826  0.164547  1
  O  O79  1  0.537818  0.423033  0.349829  1
  O  O80  1  0.153946  0.423005  0.349834  1
  O  O81  1  0.537736  0.539241  0.349849  1
  O  O82  1  0.866044  0.423030  0.213925  1
  O  O83  1  0.749958  0.423007  0.213905  1
  O  O84  1  0.633708  0.539238  0.288367  1
  O  O85  1  0.611764  0.385449  0.269825  1
  O  O86  1  0.367267  0.385424  0.269846  1
  O  O87  1  0.749995  0.497232  0.183070  1
  O  O88  1  0.611769  0.635436  0.271607  1
  O  O89  1  0.888039  0.497252  0.183094  1
  O  O90  1  0.494386  0.502840  0.345044  1
  O  O91  1  0.132594  0.364612  0.345023  1
  O  O92  1  0.132467  0.502815  0.345051  1
  O  O93  1  0.888056  0.614641  0.183086  1
  O  O94  1  0.132584  0.614601  0.183063  1
  O  O95  1  0.749866  0.502833  0.269845  1
  O  O96  1  0.888090  0.364623  0.181307  1
  O  O97  1  0.611811  0.502815  0.269824  1
  O  O98  1  0.993165  0.572887  0.125185  1
  O  O99  1  0.888989  0.433833  0.125153  1
  O  O100  1  0.645626  0.427211  0.238679  1
  O  O101  1  0.249865  0.427210  0.327753  1
  O  O102  1  0.611007  0.572857  0.214214  1
  O  O103  1  0.993255  0.433847  0.125172  1
  O  O104  1  0.249977  0.572846  0.125161  1
  O  O105  1  0.888866  0.427202  0.238696  1
  O  O106  1  0.506651  0.427215  0.327730  1
  O  O107  1  0.854218  0.572865  0.214231  1
  O  O108  1  0.610868  0.566231  0.327762  1
  O  O109  1  0.506592  0.566233  0.327747  1
  O  O110  1  -0.000000  0.351845  0.226475  1
  O  O111  1  0.648169  0.750040  0.291647  1
  O  O112  1  0.648081  0.851880  0.226463  1
  O  O113  1  0.101659  0.750025  0.161267  1
  O  O114  1  0.398105  0.851853  0.291677  1
  O  O115  1  0.953501  0.898222  0.161248  1
  O  O116  1  0.398203  0.750022  0.291647  1
  O  O117  1  0.851655  0.750046  0.161256  1
  O  O118  1  0.546346  0.851859  0.291665  1
  O  O119  1  0.851763  0.898207  0.161229  1
  O  O120  1  0.633791  0.827049  0.288318  1
  O  O121  1  0.749890  0.827065  0.213917  1
  O  O122  1  0.866127  0.710840  0.213900  1
  O  O123  1  0.962018  0.827036  0.213937  1
  O  O124  1  0.345907  0.827043  0.288338  1
  O  O125  1  0.962118  0.710814  0.213887  1
  O  O126  1  0.866155  0.960832  0.164554  1
  O  O127  1  0.537808  0.923022  0.349826  1
  O  O128  1  0.153954  0.922994  0.349834  1
  O  O129  1  0.866020  0.673045  0.164591  1
  O  O130  1  0.749934  0.673015  0.238989  1
  O  O131  1  0.633699  0.789251  0.239005  1
  O  O132  1  0.537840  0.673013  0.238976  1
  O  O133  1  0.153942  0.672993  0.164573  1
  O  O134  1  0.537747  0.789229  0.239007  1
  O  O135  1  0.866049  0.923031  0.213927  1
  O  O136  1  0.749963  0.923005  0.213907  1
  O  O137  1  0.749968  0.747243  0.269801  1
  O  O138  1  0.611761  0.885448  0.269821  1
  O  O139  1  0.888031  0.747256  0.181326  1
  O  O140  1  0.005453  0.747233  0.181319  1
  O  O141  1  0.367271  0.885421  0.269834  1
  O  O142  1  0.367385  0.747228  0.269802  1
  O  O143  1  0.749996  0.997240  0.183075  1
  O  O144  1  0.888047  0.997256  0.183098  1
  O  O145  1  0.132600  0.864603  0.345025  1
  O  O146  1  0.749849  0.752851  0.183104  1
  O  O147  1  0.611795  0.752826  0.271579  1
  O  O148  1  0.494409  0.752823  0.271586  1
  O  O149  1  0.132463  0.752799  0.183120  1
  O  O150  1  0.888091  0.864625  0.181311  1
  O  O151  1  0.249868  0.677204  0.125202  1
  O  O152  1  0.889000  0.933831  0.125158  1
  O  O153  1  0.610968  0.822868  0.327710  1
  O  O154  1  0.645622  0.927219  0.238681  1
  O  O155  1  0.993246  0.683843  0.171836  1
  O  O156  1  0.993191  0.822870  0.171872  1
  O  O157  1  0.249880  0.927200  0.327743  1
  O  O158  1  0.888975  0.683832  0.238658  1
  O  O159  1  0.645609  0.677217  0.281059  1
  O  O160  1  0.993268  0.933841  0.125175  1
  O  O161  1  0.888840  0.677212  0.125198  1
  O  O162  1  0.249988  0.822842  0.327718  1
  O  O163  1  0.888864  0.927193  0.238701  1
  O  O164  1  0.854231  0.822861  0.171852  1
  O  O165  1  0.506650  0.927206  0.327724  1
  O  O166  1  0.506670  0.677195  0.281044  1
  O  O167  1  0.506593  0.816235  0.281064  1
  O  O168  1  0.610859  0.816236  0.214242  1
  O  O169  1  0.148204  0.250002  0.291650  1
  O  O170  1  0.453525  0.148172  0.161239  1
  O  O171  1  0.601669  0.250010  0.161264  1
  O  O172  1  0.351653  0.000000  0.226461  1
  O  O173  1  0.148089  0.101841  0.291684  1
  O  O174  1  0.898190  0.250030  0.291647  1
  O  O175  1  0.601763  0.148179  0.161229  1
  O  O176  1  0.351706  0.249989  0.161254  1
  O  O177  1  0.351775  0.148166  0.226446  1
  O  O178  1  0.046338  0.101838  0.291671  1
  O  O179  1  0.133839  0.327003  0.288315  1
  O  O180  1  0.249945  0.327015  0.213910  1
  O  O181  1  0.366169  0.210788  0.213899  1
  O  O182  1  0.462033  0.327016  0.213932  1
  O  O183  1  0.845907  0.327062  0.288341  1
  O  O184  1  0.462119  0.210808  0.213898  1
  O  O185  1  0.133790  0.077024  0.238989  1
  O  O186  1  0.249890  0.077041  0.239006  1
  O  O187  1  0.037728  0.039220  0.349842  1
  O  O188  1  0.366076  0.172984  0.164588  1
  O  O189  1  0.249970  0.172977  0.238991  1
  O  O190  1  0.133737  0.289200  0.239005  1
  O  O191  1  0.037824  0.173015  0.238977  1
  O  O192  1  0.653957  0.172988  0.164574  1
  O  O193  1  0.037744  0.289228  0.239018  1
  O  O194  1  0.133687  0.039223  0.288362  1
  O  O195  1  0.250010  0.247198  0.269801  1
  O  O196  1  0.388085  0.247203  0.181320  1
  O  O197  1  0.505471  0.247206  0.181317  1
  O  O198  1  0.867370  0.247260  0.269800  1
  O  O199  1  0.111762  0.135424  0.271602  1
  O  O200  1  0.994387  0.002809  0.345039  1
  O  O201  1  0.632486  0.002791  0.345051  1
  O  O202  1  0.249899  0.252790  0.183104  1
  O  O203  1  0.388102  0.114589  0.183087  1
  O  O204  1  0.111830  0.252787  0.271581  1
  O  O205  1  0.994404  0.252815  0.271590  1
  O  O206  1  0.632584  0.114616  0.183077  1
  O  O207  1  0.632478  0.252800  0.183115  1
  O  O208  1  0.249851  0.002808  0.269838  1
  O  O209  1  0.111778  0.002809  0.269823  1
  O  O210  1  0.493208  0.072824  0.125184  1
  O  O211  1  0.749876  0.177192  0.125197  1
  O  O212  1  0.111013  0.322841  0.327708  1
  O  O213  1  0.493280  0.183798  0.171838  1
  O  O214  1  0.493206  0.322836  0.171864  1
  O  O215  1  0.388996  0.183811  0.238666  1
  O  O216  1  0.110966  0.072863  0.214219  1
  O  O217  1  0.145627  0.177185  0.281058  1
  O  O218  1  0.749984  0.072833  0.125167  1
  O  O219  1  0.388889  0.177161  0.125198  1
  O  O220  1  0.749980  0.322858  0.327716  1
  O  O221  1  0.354271  0.322813  0.171841  1
  O  O222  1  0.354234  0.072824  0.214230  1
  O  O223  1  0.006656  0.177186  0.281043  1
  O  O224  1  0.110859  0.066210  0.327754  1
  O  O225  1  0.006616  0.316202  0.281070  1
  O  O226  1  0.110897  0.316201  0.214243  1
  O  O227  1  0.006576  0.066212  0.327742  1
  O  O228  1  0.148151  -0.000000  0.226450  1
  O  O229  1  0.148140  0.351818  0.226457  1
  O  O230  1  0.453484  0.648203  0.161252  1
  O  O231  1  0.898108  0.351854  0.291687  1
  O  O232  1  0.148217  0.499993  0.226431  1
  O  O233  1  0.148107  0.601833  0.291679  1
  O  O234  1  0.453515  0.398186  0.161238  1
  O  O235  1  0.601761  0.648185  0.161222  1
  O  O236  1  0.046393  0.351813  0.291661  1
  O  O237  1  0.351759  0.648178  0.226454  1
  O  O238  1  0.351670  0.500005  0.226466  1
  O  O239  1  0.046378  0.601814  0.291657  1
  O  O240  1  0.351786  0.398170  0.161213  1
  O  O241  1  0.133821  0.577009  0.238978  1
  O  O242  1  0.249915  0.577027  0.239001  1
  O  O243  1  0.366159  0.460802  0.164547  1
  O  O244  1  0.037842  0.423001  0.349820  1
  O  O245  1  0.653952  0.423010  0.349836  1
  O  O246  1  0.037735  0.539225  0.349839  1
  O  O247  1  0.366060  0.422993  0.213918  1
  O  O248  1  0.249986  0.422971  0.213890  1
  O  O249  1  0.133722  0.539206  0.288353  1
  O  O250  1  0.111816  0.385398  0.269814  1
  O  O251  1  0.867274  0.385446  0.269845  1
  O  O252  1  0.250007  0.497205  0.183061  1
  O  O253  1  0.111787  0.635409  0.271592  1
  O  O254  1  0.388068  0.497216  0.183087  1
  O  O255  1  0.994411  0.502803  0.345030  1
  O  O256  1  0.632585  0.364631  0.345025  1
  O  O257  1  0.632479  0.502820  0.345055  1
  O  O258  1  0.388100  0.614591  0.183091  1
  O  O259  1  0.632602  0.614611  0.183063  1
  O  O260  1  0.249871  0.502802  0.269838  1
  O  O261  1  0.388109  0.364591  0.181298  1
  O  O262  1  0.111836  0.502781  0.269806  1
  O  O263  1  0.493200  0.572848  0.125189  1
  O  O264  1  0.389000  0.433821  0.125151  1
  O  O265  1  0.145665  0.427165  0.238666  1
  O  O266  1  0.749885  0.427208  0.327750  1
  O  O267  1  0.111008  0.572832  0.214205  1
  O  O268  1  0.493273  0.433814  0.125168  1
  O  O269  1  0.749988  0.572841  0.125156  1
  O  O270  1  0.388864  0.427173  0.238695  1
  O  O271  1  0.006693  0.427163  0.327718  1
  O  O272  1  0.354235  0.572828  0.214237  1
  O  O273  1  0.110864  0.566215  0.327753  1
  O  O274  1  0.006611  0.566196  0.327729  1
  O  O275  1  0.500005  0.648199  0.226434  1
  O  O276  1  -0.000000  0.398203  0.386609  1
  O  O277  1  0.499865  0.351830  0.226477  1
  O  O278  1  0.148190  0.750005  0.291656  1
  O  O279  1  0.148079  0.851841  0.226477  1
  O  O280  1  0.601667  0.750016  0.161252  1
  O  O281  1  0.898092  0.851833  0.291692  1
  O  O282  1  0.453468  0.898199  0.161242  1
  O  O283  1  0.898185  0.750003  0.291646  1
  O  O284  1  0.351641  0.750014  0.161277  1
  O  O285  1  0.046345  0.851821  0.291680  1
  O  O286  1  -0.000000  0.851834  0.226485  1
  O  O287  1  0.351724  0.898190  0.161225  1
  O  O288  1  0.133806  0.827013  0.288325  1
  O  O289  1  0.249870  0.827048  0.213935  1
  O  O290  1  0.366136  0.710809  0.213911  1
  O  O291  1  0.462033  0.827022  0.213922  1
  O  O292  1  0.845902  0.827033  0.288340  1
  O  O293  1  0.462120  0.710810  0.213894  1
  O  O294  1  0.366114  0.960814  0.164550  1
  O  O295  1  0.037836  0.923002  0.349826  1
  O  O296  1  0.653946  0.922982  0.349834  1
  O  O297  1  0.366037  0.672998  0.164603  1
  O  O298  1  0.249963  0.672981  0.238995  1
  O  O299  1  0.133688  0.789216  0.239022  1
  O  O300  1  0.037824  0.672994  0.238975  1
  O  O301  1  0.653954  0.672998  0.164565  1
  O  O302  1  0.037725  0.789216  0.239027  1
  O  O303  1  0.366029  0.923001  0.213919  1
  O  O304  1  0.249920  0.923000  0.213906  1
  O  O305  1  0.249986  0.747211  0.269810  1
  O  O306  1  0.111743  0.885425  0.269837  1
  O  O307  1  0.388017  0.747241  0.181343  1
  O  O308  1  0.505460  0.747214  0.181314  1
  O  O309  1  0.867258  0.885428  0.269850  1
  O  O310  1  0.867379  0.747227  0.269794  1
  O  O311  1  0.249956  0.997222  0.183072  1
  O  O312  1  0.388027  0.997229  0.183089  1
  O  O313  1  0.632571  0.864609  0.345023  1
  O  O314  1  0.249852  0.752803  0.183122  1
  O  O315  1  0.111814  0.752787  0.271587  1
  O  O316  1  0.994391  0.752797  0.271593  1
  O  O317  1  0.632482  0.752813  0.183099  1
  O  O318  1  0.388055  0.864610  0.181307  1
  O  O319  1  0.749876  0.677196  0.125184  1
  O  O320  1  0.388953  0.933829  0.125156  1
  O  O321  1  0.110995  0.822846  0.327716  1
  O  O322  1  0.145591  0.927197  0.238689  1
  O  O323  1  0.493250  0.683820  0.171844  1
  O  O324  1  0.493179  0.822844  0.171860  1
  O  O325  1  0.749875  0.927178  0.327753  1
  O  O326  1  0.388989  0.683817  0.238668  1
  O  O327  1  0.145635  0.677177  0.281055  1
  O  O328  1  0.493239  0.933811  0.125169  1
  O  O329  1  0.388853  0.677181  0.125212  1
  O  O330  1  0.749973  0.822828  0.327713  1
  O  O331  1  0.388852  0.927180  0.238689  1
  O  O332  1  0.354195  0.822843  0.171861  1
  O  O333  1  0.006656  0.927169  0.327735  1
  O  O334  1  0.006670  0.677162  0.281037  1
  O  O335  1  0.006586  0.816193  0.281082  1
  O  O336  1  0.110858  0.816205  0.214258  1
  O  O337  1  0.499864  0.851838  0.226466  1
  O  O338  1  0.398104  0.101854  0.386642  1
  O  O339  1  0.648181  0.250045  0.612004  1
  O  O340  1  0.953493  0.148223  0.481591  1
  O  O341  1  0.101669  0.250032  0.481613  1
  O  O342  1  0.398176  -0.000000  0.386620  1
  O  O343  1  0.000000  0.148224  0.546787  1
  O  O344  1  0.851675  -0.000000  0.546822  1
  O  O345  1  0.648100  0.101867  0.612048  1
  O  O346  1  0.398180  0.250029  0.612011  1
  O  O347  1  0.101744  0.148212  0.481575  1
  O  O348  1  0.851659  0.250038  0.481608  1
  O  O349  1  0.851742  0.148223  0.546797  1
  O  O350  1  0.546371  0.101847  0.612025  1
  O  O351  1  0.962033  0.077035  0.423436  1
  O  O352  1  0.345900  0.077049  0.423429  1
  O  O353  1  0.633787  0.327060  0.608677  1
  O  O354  1  0.749898  0.327059  0.534268  1
  O  O355  1  0.866137  0.210844  0.534249  1
  O  O356  1  0.962032  0.327046  0.534284  1
  O  O357  1  0.345900  0.327048  0.608698  1
  O  O358  1  0.962108  0.210839  0.534243  1
  O  O359  1  0.633817  0.077046  0.559346  1
  O  O360  1  0.749901  0.077063  0.559368  1
  O  O361  1  0.866046  0.173028  0.484939  1
  O  O362  1  0.749941  0.173021  0.559344  1
  O  O363  1  0.633700  0.289243  0.559366  1
  O  O364  1  0.537815  0.173027  0.559342  1
  O  O365  1  0.153945  0.173004  0.484923  1
  O  O366  1  0.537730  0.289231  0.559377  1
  O  O367  1  0.633721  0.039237  0.608718  1
  O  O368  1  0.367276  0.135420  0.428240  1
  O  O369  1  0.749975  0.247256  0.590153  1
  O  O370  1  0.888046  0.247252  0.501671  1
  O  O371  1  0.005454  0.247247  0.501670  1
  O  O372  1  0.367374  0.247236  0.590158  1
  O  O373  1  0.611771  0.135447  0.591965  1
  O  O374  1  0.749861  0.252829  0.503460  1
  O  O375  1  0.888076  0.114634  0.503437  1
  O  O376  1  0.611787  0.252833  0.591945  1
  O  O377  1  0.494377  0.252836  0.591958  1
  O  O378  1  0.132579  0.114617  0.503417  1
  O  O379  1  0.132480  0.252808  0.503463  1
  O  O380  1  0.749876  0.002834  0.590197  1
  O  O381  1  0.611825  0.002814  0.590174  1
  O  O382  1  0.993197  0.072870  0.445533  1
  O  O383  1  0.249880  0.177202  0.445546  1
  O  O384  1  0.610988  0.322877  0.648063  1
  O  O385  1  0.993251  0.183852  0.492187  1
  O  O386  1  0.993194  0.322875  0.492219  1
  O  O387  1  0.888968  0.183856  0.559014  1
  O  O388  1  0.610992  0.072868  0.534578  1
  O  O389  1  0.645623  0.177218  0.601417  1
  O  O390  1  0.249965  0.072858  0.445512  1
  O  O391  1  0.888855  0.177196  0.445550  1
  O  O392  1  0.249972  0.322854  0.648075  1
  O  O393  1  0.854226  0.322861  0.492202  1
  O  O394  1  0.854224  0.072870  0.534588  1
  O  O395  1  0.506660  0.177201  0.601406  1
  O  O396  1  0.610883  0.066215  0.648112  1
  O  O397  1  0.506580  0.316239  0.601432  1
  O  O398  1  0.610864  0.316222  0.534603  1
  O  O399  1  0.506606  0.066225  0.648094  1
  O  O400  1  0.101674  -0.000000  0.386636  1
  O  O401  1  0.499986  0.148209  0.546797  1
  O  O402  1  0.648199  -0.000000  0.546802  1
  O  O403  1  0.101646  0.500043  0.386643  1
  O  O404  1  0.398092  0.601866  0.386649  1
  O  O405  1  0.648092  0.351864  0.546817  1
  O  O406  1  0.953471  0.648231  0.481594  1
  O  O407  1  0.398085  0.351863  0.612046  1
  O  O408  1  0.000000  0.648191  0.546779  1
  O  O409  1  0.648195  0.500029  0.546798  1
  O  O410  1  0.648095  0.601864  0.612043  1
  O  O411  1  0.953496  0.398221  0.481595  1
  O  O412  1  0.398184  0.500035  0.386625  1
  O  O413  1  0.101748  0.398210  0.386624  1
  O  O414  1  0.101753  0.648195  0.481571  1
  O  O415  1  0.546342  0.351865  0.612025  1
  O  O416  1  0.851735  0.648215  0.546794  1
  O  O417  1  0.851663  0.500038  0.546820  1
  O  O418  1  0.546359  0.601845  0.612023  1
  O  O419  1  0.851760  0.398203  0.481576  1
  O  O420  1  0.962007  0.577053  0.423437  1
  O  O421  1  0.345895  0.577055  0.423435  1
  O  O422  1  0.962116  0.460826  0.423418  1
  O  O423  1  0.633811  0.577037  0.559342  1
  O  O424  1  0.749894  0.577059  0.559363  1
  O  O425  1  0.866153  0.460826  0.484898  1
  O  O426  1  0.866044  0.423030  0.534276  1
  O  O427  1  0.749958  0.423007  0.534256  1
  O  O428  1  0.633708  0.539238  0.608718  1
  O  O429  1  0.005439  0.497250  0.428227  1
  O  O430  1  0.367266  0.635429  0.428246  1
  O  O431  1  0.367372  0.497246  0.428216  1
  O  O432  1  0.611764  0.385449  0.590176  1
  O  O433  1  0.367267  0.385424  0.590197  1
  O  O434  1  0.749995  0.497232  0.503421  1
  O  O435  1  0.611769  0.635436  0.591958  1
  O  O436  1  0.888039  0.497252  0.503445  1
  O  O437  1  0.888056  0.614641  0.503437  1
  O  O438  1  0.132584  0.614601  0.503414  1
  O  O439  1  0.749866  0.502833  0.590196  1
  O  O440  1  0.888090  0.364623  0.501658  1
  O  O441  1  0.611811  0.502815  0.590175  1
  O  O442  1  0.993165  0.572887  0.445536  1
  O  O443  1  0.888989  0.433833  0.445504  1
  O  O444  1  0.645626  0.427211  0.559030  1
  O  O445  1  0.249865  0.427210  0.648104  1
  O  O446  1  0.611007  0.572857  0.534565  1
  O  O447  1  0.993255  0.433847  0.445523  1
  O  O448  1  0.249977  0.572846  0.445512  1
  O  O449  1  0.888866  0.427202  0.559047  1
  O  O450  1  0.506651  0.427215  0.648081  1
  O  O451  1  0.854218  0.572865  0.534583  1
  O  O452  1  0.610868  0.566231  0.648113  1
  O  O453  1  0.506592  0.566233  0.648098  1
  O  O454  1  0.499990  0.398220  0.386613  1
  O  O455  1  -0.000000  0.351845  0.546826  1
  O  O456  1  -0.000000  0.898200  0.386613  1
  O  O457  1  0.648169  0.750040  0.611998  1
  O  O458  1  0.648081  0.851880  0.546814  1
  O  O459  1  0.101659  0.750025  0.481618  1
  O  O460  1  0.398105  0.851853  0.612028  1
  O  O461  1  0.953501  0.898222  0.481599  1
  O  O462  1  0.101769  0.898193  0.386623  1
  O  O463  1  0.398203  0.750022  0.611998  1
  O  O464  1  0.851655  0.750046  0.481607  1
  O  O465  1  0.546346  0.851859  0.612016  1
  O  O466  1  0.851763  0.898207  0.481580  1
  O  O467  1  0.962135  0.960818  0.423420  1
  O  O468  1  0.633791  0.827049  0.608669  1
  O  O469  1  0.749890  0.827065  0.534268  1
  O  O470  1  0.866127  0.710840  0.534251  1
  O  O471  1  0.962018  0.827036  0.534288  1
  O  O472  1  0.345907  0.827043  0.608689  1
  O  O473  1  0.962118  0.710814  0.534238  1
  O  O474  1  0.866155  0.960832  0.484905  1
  O  O475  1  0.866020  0.673045  0.484942  1
  O  O476  1  0.749934  0.673015  0.559340  1
  O  O477  1  0.633699  0.789251  0.559356  1
  O  O478  1  0.537840  0.673013  0.559327  1
  O  O479  1  0.153942  0.672993  0.484924  1
  O  O480  1  0.537747  0.789229  0.559358  1
  O  O481  1  0.866049  0.923031  0.534279  1
  O  O482  1  0.749963  0.923005  0.534258  1
  O  O483  1  0.005476  0.997230  0.428223  1
  O  O484  1  0.367358  0.997242  0.428212  1
  O  O485  1  0.749968  0.747243  0.590153  1
  O  O486  1  0.611761  0.885448  0.590172  1
  O  O487  1  0.888031  0.747256  0.501677  1
  O  O488  1  0.005453  0.747233  0.501670  1
  O  O489  1  0.367271  0.885421  0.590185  1
  O  O490  1  0.367385  0.747228  0.590153  1
  O  O491  1  0.749996  0.997240  0.503426  1
  O  O492  1  0.888047  0.997256  0.503450  1
  O  O493  1  0.749849  0.752851  0.503455  1
  O  O494  1  0.611795  0.752826  0.591930  1
  O  O495  1  0.494409  0.752823  0.591937  1
  O  O496  1  0.132463  0.752799  0.503471  1
  O  O497  1  0.888091  0.864625  0.501662  1
  O  O498  1  0.249868  0.677204  0.445553  1
  O  O499  1  0.889000  0.933831  0.445509  1
  O  O500  1  0.610968  0.822868  0.648061  1
  O  O501  1  0.645622  0.927219  0.559032  1
  O  O502  1  0.993246  0.683843  0.492187  1
  O  O503  1  0.993191  0.822870  0.492223  1
  O  O504  1  0.249880  0.927200  0.648094  1
  O  O505  1  0.888975  0.683832  0.559009  1
  O  O506  1  0.645609  0.677217  0.601410  1
  O  O507  1  0.993268  0.933841  0.445527  1
  O  O508  1  0.888840  0.677212  0.445549  1
  O  O509  1  0.249988  0.822842  0.648069  1
  O  O510  1  0.888864  0.927193  0.559052  1
  O  O511  1  0.854231  0.822861  0.492203  1
  O  O512  1  0.506650  0.927206  0.648075  1
  O  O513  1  0.506670  0.677195  0.601395  1
  O  O514  1  0.506593  0.816235  0.601415  1
  O  O515  1  0.610859  0.816236  0.534593  1
  O  O516  1  0.499965  0.898210  0.386612  1
  O  O517  1  0.898091  0.101844  0.386642  1
  O  O518  1  0.148204  0.250002  0.612001  1
  O  O519  1  0.453525  0.148172  0.481590  1
  O  O520  1  0.601669  0.250010  0.481615  1
  O  O521  1  0.351653  0.000000  0.546812  1
  O  O522  1  0.148089  0.101841  0.612035  1
  O  O523  1  0.898190  0.250030  0.611998  1
  O  O524  1  0.601763  0.148179  0.481580  1
  O  O525  1  0.351706  0.249989  0.481605  1
  O  O526  1  0.351775  0.148166  0.546797  1
  O  O527  1  0.046338  0.101838  0.612022  1
  O  O528  1  0.462039  0.077009  0.423437  1
  O  O529  1  0.845909  0.077040  0.423429  1
  O  O530  1  0.133839  0.327003  0.608666  1
  O  O531  1  0.249945  0.327015  0.534262  1
  O  O532  1  0.366169  0.210788  0.534250  1
  O  O533  1  0.462033  0.327016  0.534283  1
  O  O534  1  0.845907  0.327062  0.608692  1
  O  O535  1  0.462119  0.210808  0.534249  1
  O  O536  1  0.133790  0.077024  0.559341  1
  O  O537  1  0.249890  0.077041  0.559357  1
  O  O538  1  0.366076  0.172984  0.484939  1
  O  O539  1  0.249970  0.172977  0.559342  1
  O  O540  1  0.133737  0.289200  0.559356  1
  O  O541  1  0.037824  0.173015  0.559328  1
  O  O542  1  0.653957  0.172988  0.484925  1
  O  O543  1  0.037744  0.289228  0.559369  1
  O  O544  1  0.133687  0.039223  0.608713  1
  O  O545  1  0.867270  0.135426  0.428237  1
  O  O546  1  0.250010  0.247198  0.590152  1
  O  O547  1  0.388085  0.247203  0.501671  1
  O  O548  1  0.505471  0.247206  0.501668  1
  O  O549  1  0.867370  0.247260  0.590151  1
  O  O550  1  0.111762  0.135424  0.591953  1
  O  O551  1  0.249899  0.252790  0.503455  1
  O  O552  1  0.388102  0.114589  0.503438  1
  O  O553  1  0.111830  0.252787  0.591932  1
  O  O554  1  0.994404  0.252815  0.591941  1
  O  O555  1  0.632584  0.114616  0.503428  1
  O  O556  1  0.632478  0.252800  0.503466  1
  O  O557  1  0.249851  0.002808  0.590189  1
  O  O558  1  0.111778  0.002809  0.590174  1
  O  O559  1  0.493208  0.072824  0.445536  1
  O  O560  1  0.749876  0.177192  0.445548  1
  O  O561  1  0.111013  0.322841  0.648059  1
  O  O562  1  0.493280  0.183798  0.492190  1
  O  O563  1  0.493206  0.322836  0.492215  1
  O  O564  1  0.388996  0.183811  0.559017  1
  O  O565  1  0.110966  0.072863  0.534570  1
  O  O566  1  0.145627  0.177185  0.601409  1
  O  O567  1  0.749984  0.072833  0.445519  1
  O  O568  1  0.388889  0.177161  0.445549  1
  O  O569  1  0.749980  0.322858  0.648068  1
  O  O570  1  0.354271  0.322813  0.492192  1
  O  O571  1  0.354234  0.072824  0.534581  1
  O  O572  1  0.006656  0.177186  0.601394  1
  O  O573  1  0.110859  0.066210  0.648105  1
  O  O574  1  0.006616  0.316202  0.601421  1
  O  O575  1  0.110897  0.316201  0.534594  1
  O  O576  1  0.006576  0.066212  0.648093  1
  O  O577  1  -0.000000  0.101835  0.386649  1
  O  O578  1  0.898193  -0.000000  0.386625  1
  O  O579  1  0.148151  -0.000000  0.546801  1
  O  O580  1  0.499880  0.101821  0.386652  1
  O  O581  1  0.601677  0.500023  0.386643  1
  O  O582  1  0.898103  0.601844  0.386632  1
  O  O583  1  0.148140  0.351818  0.546808  1
  O  O584  1  0.453484  0.648203  0.481603  1
  O  O585  1  0.898108  0.351854  0.612038  1
  O  O586  1  0.148217  0.499993  0.546782  1
  O  O587  1  0.148107  0.601833  0.612030  1
  O  O588  1  0.453515  0.398186  0.481589  1
  O  O589  1  0.898204  0.500010  0.386614  1
  O  O590  1  0.601762  0.398195  0.386621  1
  O  O591  1  0.601761  0.648185  0.481573  1
  O  O592  1  0.046393  0.351813  0.612012  1
  O  O593  1  0.351759  0.648178  0.546805  1
  O  O594  1  0.351670  0.500005  0.546817  1
  O  O595  1  0.046378  0.601814  0.612008  1
  O  O596  1  0.351786  0.398170  0.481564  1
  O  O597  1  0.462041  0.577022  0.423439  1
  O  O598  1  0.845911  0.577045  0.423421  1
  O  O599  1  0.462118  0.460823  0.423423  1
  O  O600  1  0.133821  0.577009  0.559329  1
  O  O601  1  0.249915  0.577027  0.559352  1
  O  O602  1  0.366159  0.460802  0.484898  1
  O  O603  1  0.366060  0.422993  0.534269  1
  O  O604  1  0.249986  0.422971  0.534241  1
  O  O605  1  0.133722  0.539206  0.608704  1
  O  O606  1  0.505476  0.497217  0.428226  1
  O  O607  1  0.867254  0.635445  0.428234  1
  O  O608  1  0.867387  0.497236  0.428206  1
  O  O609  1  0.111816  0.385398  0.590165  1
  O  O610  1  0.867274  0.385446  0.590196  1
  O  O611  1  0.250007  0.497205  0.503412  1
  O  O612  1  0.111787  0.635409  0.591943  1
  O  O613  1  0.388068  0.497216  0.503438  1
  O  O614  1  0.388100  0.614591  0.503442  1
  O  O615  1  0.632602  0.614611  0.503414  1
  O  O616  1  0.249871  0.502802  0.590189  1
  O  O617  1  0.388109  0.364591  0.501649  1
  O  O618  1  0.111836  0.502781  0.590157  1
  O  O619  1  0.493200  0.572848  0.445540  1
  O  O620  1  0.389000  0.433821  0.445502  1
  O  O621  1  0.145665  0.427165  0.559017  1
  O  O622  1  0.749885  0.427208  0.648101  1
  O  O623  1  0.111008  0.572832  0.534556  1
  O  O624  1  0.493273  0.433814  0.445519  1
  O  O625  1  0.749988  0.572841  0.445507  1
  O  O626  1  0.388864  0.427173  0.559046  1
  O  O627  1  0.006693  0.427163  0.648069  1
  O  O628  1  0.354235  0.572828  0.534588  1
  O  O629  1  0.110864  0.566215  0.648104  1
  O  O630  1  0.006611  0.566196  0.648080  1
  O  O631  1  0.500005  0.648199  0.546785  1
  O  O632  1  0.000000  0.601851  0.386649  1
  O  O633  1  0.499862  0.601845  0.386659  1
  O  O634  1  0.499865  0.351830  0.546828  1
  O  O635  1  0.601669  -0.000000  0.386643  1
  O  O636  1  0.148190  0.750005  0.612007  1
  O  O637  1  0.148079  0.851841  0.546828  1
  O  O638  1  0.601667  0.750016  0.481603  1
  O  O639  1  0.898092  0.851833  0.612043  1
  O  O640  1  0.453468  0.898199  0.481593  1
  O  O641  1  0.601747  0.898175  0.386619  1
  O  O642  1  0.898185  0.750003  0.611997  1
  O  O643  1  0.351641  0.750014  0.481628  1
  O  O644  1  0.046345  0.851821  0.612031  1
  O  O645  1  -0.000000  0.851834  0.546836  1
  O  O646  1  0.351724  0.898190  0.481576  1
  O  O647  1  0.462100  0.960811  0.423419  1
  O  O648  1  0.133806  0.827013  0.608676  1
  O  O649  1  0.249870  0.827048  0.534286  1
  O  O650  1  0.366136  0.710809  0.534262  1
  O  O651  1  0.462033  0.827022  0.534273  1
  O  O652  1  0.845902  0.827033  0.608691  1
  O  O653  1  0.462120  0.710810  0.534245  1
  O  O654  1  0.366114  0.960814  0.484902  1
  O  O655  1  0.366037  0.672998  0.484954  1
  O  O656  1  0.249963  0.672981  0.559346  1
  O  O657  1  0.133688  0.789216  0.559374  1
  O  O658  1  0.037824  0.672994  0.559326  1
  O  O659  1  0.653954  0.672998  0.484916  1
  O  O660  1  0.037725  0.789216  0.559378  1
  O  O661  1  0.366029  0.923001  0.534271  1
  O  O662  1  0.249920  0.923000  0.534257  1
  O  O663  1  0.505458  0.997203  0.428225  1
  O  O664  1  0.867393  0.997233  0.428213  1
  O  O665  1  0.249986  0.747211  0.590162  1
  O  O666  1  0.111743  0.885425  0.590188  1
  O  O667  1  0.388017  0.747241  0.501694  1
  O  O668  1  0.505460  0.747214  0.501666  1
  O  O669  1  0.867258  0.885428  0.590201  1
  O  O670  1  0.867379  0.747227  0.590145  1
  O  O671  1  0.249956  0.997222  0.503423  1
  O  O672  1  0.388027  0.997229  0.503440  1
  O  O673  1  0.249852  0.752803  0.503473  1
  O  O674  1  0.111814  0.752787  0.591939  1
  O  O675  1  0.994391  0.752797  0.591944  1
  O  O676  1  0.632482  0.752813  0.503450  1
  O  O677  1  0.388055  0.864610  0.501658  1
  O  O678  1  0.749876  0.677196  0.445535  1
  O  O679  1  0.388953  0.933829  0.445507  1
  O  O680  1  0.110995  0.822846  0.648067  1
  O  O681  1  0.145591  0.927197  0.559040  1
  O  O682  1  0.493250  0.683820  0.492195  1
  O  O683  1  0.493179  0.822844  0.492211  1
  O  O684  1  0.749875  0.927178  0.648104  1
  O  O685  1  0.388989  0.683817  0.559019  1
  O  O686  1  0.145635  0.677177  0.601406  1
  O  O687  1  0.493239  0.933811  0.445520  1
  O  O688  1  0.388853  0.677181  0.445563  1
  O  O689  1  0.749973  0.822828  0.648064  1
  O  O690  1  0.388852  0.927180  0.559040  1
  O  O691  1  0.354195  0.822843  0.492212  1
  O  O692  1  0.006656  0.927169  0.648086  1
  O  O693  1  0.006670  0.677162  0.601388  1
  O  O694  1  0.006586  0.816193  0.601433  1
  O  O695  1  0.110858  0.816205  0.534609  1
  O  O696  1  0.499864  0.851838  0.546817  1
  Si  Si697  1  0.928134  0.124867  0.157755  1
  Si  Si698  1  0.660566  0.053158  0.295190  1
  Si  Si699  1  0.660552  0.303157  0.214989  1
  Si  Si700  1  0.660661  0.286277  0.295139  1
  Si  Si701  1  0.928174  0.196930  0.180958  1
  Si  Si702  1  0.016724  0.286267  0.180989  1
  Si  Si703  1  0.927888  0.196934  0.237921  1
  Si  Si704  1  0.660684  0.036264  0.214966  1
  Si  Si705  1  0.660990  0.125224  0.271963  1
  Si  Si706  1  0.338571  0.286253  0.295150  1
  Si  Si707  1  0.016796  0.196920  0.180950  1
  Si  Si708  1  0.838815  0.286267  0.180976  1
  Si  Si709  1  0.839282  0.196928  0.237923  1
  Si  Si710  1  0.838823  0.036269  0.214983  1
  Si  Si711  1  0.571722  0.125209  0.271944  1
  Si  Si712  1  0.571969  0.053123  0.351948  1
  Si  Si713  1  0.839175  0.213806  0.157772  1
  Si  Si714  1  0.838854  0.124861  0.214971  1
  Si  Si715  1  0.571664  0.303157  0.271956  1
  Si  Si716  1  0.483121  0.213807  0.271936  1
  Si  Si717  1  0.161350  0.124847  0.157734  1
  Si  Si718  1  0.571953  0.303131  0.214994  1
  Si  Si719  1  0.571694  0.053141  0.295169  1
  Si  Si720  1  0.483054  0.053151  0.351941  1
  Si  Si721  1  0.161281  0.213797  0.157769  1
  Si  Si722  1  0.572051  0.124862  0.214968  1
  Si  Si723  1  0.483034  0.303161  0.271970  1
  Si  Si724  1  0.661023  0.213815  0.271935  1
  Si  Si725  1  0.660556  0.553159  0.295188  1
  Si  Si726  1  0.928135  0.374867  0.180977  1
  Si  Si727  1  0.483043  0.553166  0.351948  1
  Si  Si728  1  0.661036  0.463803  0.237938  1
  Si  Si729  1  0.928106  0.624882  0.157758  1
  Si  Si730  1  0.572077  0.624849  0.214952  1
  Si  Si731  1  0.660984  0.375222  0.237940  1
  Si  Si732  1  0.338485  0.375212  0.295184  1
  Si  Si733  1  0.660684  0.536254  0.214959  1
  Si  Si734  1  0.660983  0.625220  0.271957  1
  Si  Si735  1  0.928178  0.446923  0.157746  1
  Si  Si736  1  0.927801  0.375207  0.237955  1
  Si  Si737  1  0.571701  0.375222  0.295159  1
  Si  Si738  1  0.838815  0.536265  0.214979  1
  Si  Si739  1  0.571718  0.625200  0.271938  1
  Si  Si740  1  0.839305  0.446904  0.157726  1
  Si  Si741  1  0.483124  0.463814  0.351927  1
  Si  Si742  1  0.161358  0.374845  0.351925  1
  Si  Si743  1  0.571954  0.553147  0.351954  1
  Si  Si744  1  0.838846  0.624857  0.214968  1
  Si  Si745  1  0.161355  0.624833  0.157731  1
  Si  Si746  1  0.839178  0.463809  0.237955  1
  Si  Si747  1  0.838868  0.374847  0.180959  1
  Si  Si748  1  0.571679  0.553144  0.295170  1
  Si  Si749  1  0.161269  0.463805  0.351941  1
  Si  Si750  1  0.572056  0.374869  0.351917  1
  Si  Si751  1  0.661014  0.713811  0.271928  1
  Si  Si752  1  0.928138  0.874867  0.180981  1
  Si  Si753  1  0.661042  0.963804  0.237939  1
  Si  Si754  1  0.660540  0.803176  0.214983  1
  Si  Si755  1  0.660655  0.786267  0.295134  1
  Si  Si756  1  0.660979  0.875228  0.237938  1
  Si  Si757  1  0.928160  0.696931  0.180961  1
  Si  Si758  1  0.016716  0.786257  0.180992  1
  Si  Si759  1  0.338496  0.875206  0.295171  1
  Si  Si760  1  0.927904  0.696902  0.237913  1
  Si  Si761  1  0.928183  0.946927  0.157751  1
  Si  Si762  1  0.338585  0.786246  0.295142  1
  Si  Si763  1  0.927783  0.875196  0.237962  1
  Si  Si764  1  0.016801  0.696903  0.180948  1
  Si  Si765  1  0.838811  0.786270  0.180977  1
  Si  Si766  1  0.571703  0.875214  0.295152  1
  Si  Si767  1  0.839278  0.696916  0.237922  1
  Si  Si768  1  0.839306  0.946911  0.157733  1
  Si  Si769  1  0.483121  0.963806  0.351922  1
  Si  Si770  1  0.161370  0.874832  0.351924  1
  Si  Si771  1  0.839161  0.713823  0.157772  1
  Si  Si772  1  0.571671  0.803154  0.271943  1
  Si  Si773  1  0.483147  0.713796  0.271920  1
  Si  Si774  1  0.571958  0.803139  0.214979  1
  Si  Si775  1  0.839188  0.963808  0.237956  1
  Si  Si776  1  0.838874  0.874846  0.180961  1
  Si  Si777  1  0.161281  0.963792  0.351937  1
  Si  Si778  1  0.572037  0.874857  0.351916  1
  Si  Si779  1  0.161272  0.713790  0.157774  1
  Si  Si780  1  0.483057  0.803152  0.271949  1
  Si  Si781  1  0.160697  0.286227  0.295134  1
  Si  Si782  1  0.428203  0.196878  0.180959  1
  Si  Si783  1  0.516730  0.286233  0.180987  1
  Si  Si784  1  0.427899  0.196906  0.237928  1
  Si  Si785  1  0.160644  0.036250  0.214963  1
  Si  Si786  1  0.160981  0.125200  0.271952  1
  Si  Si787  1  0.838574  0.286267  0.295142  1
  Si  Si788  1  0.516815  0.196880  0.180954  1
  Si  Si789  1  0.338866  0.286218  0.180971  1
  Si  Si790  1  0.339319  0.196870  0.237923  1
  Si  Si791  1  0.338812  0.036240  0.214972  1
  Si  Si792  1  0.071707  0.125188  0.271935  1
  Si  Si793  1  0.071944  0.053128  0.351948  1
  Si  Si794  1  0.339212  0.213764  0.157771  1
  Si  Si795  1  0.338880  0.124813  0.214971  1
  Si  Si796  1  0.071704  0.303111  0.271944  1
  Si  Si797  1  0.983135  0.213794  0.271921  1
  Si  Si798  1  0.661367  0.124827  0.157739  1
  Si  Si799  1  0.071961  0.303135  0.214990  1
  Si  Si800  1  0.071652  0.053134  0.295169  1
  Si  Si801  1  0.983037  0.053139  0.351941  1
  Si  Si802  1  0.661280  0.213786  0.157772  1
  Si  Si803  1  0.072049  0.124857  0.214955  1
  Si  Si804  1  0.983060  0.303143  0.271959  1
  Si  Si805  1  0.161048  0.213775  0.271931  1
  Si  Si806  1  0.428162  0.124819  0.157755  1
  Si  Si807  1  0.160591  0.303119  0.214981  1
  Si  Si808  1  0.160542  0.053139  0.295181  1
  Si  Si809  1  0.160563  0.553132  0.295176  1
  Si  Si810  1  0.161034  0.375174  0.237930  1
  Si  Si811  1  0.838501  0.375220  0.295178  1
  Si  Si812  1  0.160693  0.536227  0.214947  1
  Si  Si813  1  0.161000  0.625189  0.271945  1
  Si  Si814  1  0.428193  0.446892  0.157741  1
  Si  Si815  1  0.427797  0.375181  0.237955  1
  Si  Si816  1  0.071756  0.375165  0.295145  1
  Si  Si817  1  0.338832  0.536232  0.214975  1
  Si  Si818  1  0.071735  0.625170  0.271924  1
  Si  Si819  1  0.339315  0.446882  0.157723  1
  Si  Si820  1  0.983150  0.463778  0.351917  1
  Si  Si821  1  0.661363  0.374848  0.351923  1
  Si  Si822  1  0.071942  0.553139  0.351948  1
  Si  Si823  1  0.338873  0.624819  0.214977  1
  Si  Si824  1  0.661371  0.624832  0.157729  1
  Si  Si825  1  0.339185  0.463776  0.237951  1
  Si  Si826  1  0.338898  0.374809  0.180946  1
  Si  Si827  1  0.071696  0.553111  0.295155  1
  Si  Si828  1  0.661287  0.463802  0.351942  1
  Si  Si829  1  0.072076  0.374841  0.351911  1
  Si  Si830  1  0.983057  0.553135  0.351932  1
  Si  Si831  1  0.072065  0.624830  0.214949  1
  Si  Si832  1  0.428138  0.624836  0.157764  1
  Si  Si833  1  0.161066  0.463765  0.237920  1
  Si  Si834  1  0.428156  0.374829  0.180970  1
  Si  Si835  1  0.160998  0.963795  0.237940  1
  Si  Si836  1  0.428115  0.874840  0.180973  1
  Si  Si837  1  0.160673  0.786236  0.295143  1
  Si  Si838  1  0.160960  0.875206  0.237953  1
  Si  Si839  1  0.428158  0.696909  0.180974  1
  Si  Si840  1  0.516723  0.786241  0.180978  1
  Si  Si841  1  0.838492  0.875193  0.295179  1
  Si  Si842  1  0.427910  0.696901  0.237922  1
  Si  Si843  1  0.428147  0.946904  0.157746  1
  Si  Si844  1  0.838571  0.786237  0.295140  1
  Si  Si845  1  0.427795  0.875186  0.237946  1
  Si  Si846  1  0.516808  0.696887  0.180951  1
  Si  Si847  1  0.338791  0.786250  0.180995  1
  Si  Si848  1  0.071709  0.875176  0.295162  1
  Si  Si849  1  0.339296  0.696885  0.237932  1
  Si  Si850  1  0.339267  0.946894  0.157729  1
  Si  Si851  1  0.983135  0.963779  0.351926  1
  Si  Si852  1  0.661355  0.874820  0.351920  1
  Si  Si853  1  0.339164  0.713781  0.157789  1
  Si  Si854  1  0.071663  0.803118  0.271960  1
  Si  Si855  1  0.983129  0.713773  0.271920  1
  Si  Si856  1  0.071940  0.803125  0.214999  1
  Si  Si857  1  0.339164  0.963783  0.237948  1
  Si  Si858  1  0.338831  0.874837  0.180960  1
  Si  Si859  1  0.661279  0.963774  0.351942  1
  Si  Si860  1  0.072075  0.874839  0.351915  1
  Si  Si861  1  0.661280  0.713794  0.157760  1
  Si  Si862  1  0.983041  0.803128  0.271967  1
  Si  Si863  1  0.161041  0.713775  0.271933  1
  Si  Si864  1  0.160542  0.803134  0.214998  1
  Si  Si865  1  0.928134  0.124867  0.478106  1
  Si  Si866  1  0.660566  0.053158  0.615541  1
  Si  Si867  1  0.660552  0.303157  0.535340  1
  Si  Si868  1  0.016733  0.036257  0.421336  1
  Si  Si869  1  0.338496  0.125208  0.421341  1
  Si  Si870  1  0.660661  0.286277  0.615490  1
  Si  Si871  1  0.928174  0.196930  0.501309  1
  Si  Si872  1  0.016724  0.286267  0.501340  1
  Si  Si873  1  0.927888  0.196934  0.558272  1
  Si  Si874  1  0.660684  0.036264  0.535317  1
  Si  Si875  1  0.660990  0.125224  0.592314  1
  Si  Si876  1  0.338564  0.036258  0.421321  1
  Si  Si877  1  0.927793  0.125195  0.421347  1
  Si  Si878  1  0.338571  0.286253  0.615501  1
  Si  Si879  1  0.016796  0.196920  0.501301  1
  Si  Si880  1  0.838815  0.286267  0.501327  1
  Si  Si881  1  0.839282  0.196928  0.558274  1
  Si  Si882  1  0.838823  0.036269  0.535334  1
  Si  Si883  1  0.571722  0.125209  0.592295  1
  Si  Si884  1  0.839175  0.213806  0.478123  1
  Si  Si885  1  0.838854  0.124861  0.535323  1
  Si  Si886  1  0.571664  0.303157  0.592307  1
  Si  Si887  1  0.483121  0.213807  0.592287  1
  Si  Si888  1  0.161350  0.124847  0.478085  1
  Si  Si889  1  0.571953  0.303131  0.535345  1
  Si  Si890  1  0.571694  0.053141  0.615521  1
  Si  Si891  1  0.161281  0.213797  0.478120  1
  Si  Si892  1  0.572051  0.124862  0.535319  1
  Si  Si893  1  0.483034  0.303161  0.592321  1
  Si  Si894  1  0.661023  0.213815  0.592286  1
  Si  Si895  1  0.660556  0.553159  0.615539  1
  Si  Si896  1  0.928135  0.374867  0.501328  1
  Si  Si897  1  0.661036  0.463803  0.558289  1
  Si  Si898  1  0.928106  0.624882  0.478109  1
  Si  Si899  1  0.572077  0.624849  0.535303  1
  Si  Si900  1  0.016699  0.536276  0.421340  1
  Si  Si901  1  0.338486  0.625216  0.421348  1
  Si  Si902  1  0.927908  0.446912  0.421310  1
  Si  Si903  1  0.660984  0.375222  0.558291  1
  Si  Si904  1  0.338485  0.375212  0.615535  1
  Si  Si905  1  0.660684  0.536254  0.535310  1
  Si  Si906  1  0.660983  0.625220  0.592309  1
  Si  Si907  1  0.928178  0.446923  0.478097  1
  Si  Si908  1  0.338569  0.536259  0.421327  1
  Si  Si909  1  0.927773  0.625214  0.421346  1
  Si  Si910  1  0.016797  0.446916  0.421324  1
  Si  Si911  1  0.927801  0.375207  0.558306  1
  Si  Si912  1  0.571701  0.375222  0.615510  1
  Si  Si913  1  0.838815  0.536265  0.535330  1
  Si  Si914  1  0.571718  0.625200  0.592289  1
  Si  Si915  1  0.839305  0.446904  0.478077  1
  Si  Si916  1  0.838846  0.624857  0.535319  1
  Si  Si917  1  0.161355  0.624833  0.478083  1
  Si  Si918  1  0.839178  0.463809  0.558306  1
  Si  Si919  1  0.838868  0.374847  0.501310  1
  Si  Si920  1  0.571679  0.553144  0.615521  1
  Si  Si921  1  0.661014  0.713811  0.592279  1
  Si  Si922  1  0.928138  0.874867  0.501332  1
  Si  Si923  1  0.661042  0.963804  0.558290  1
  Si  Si924  1  0.660540  0.803176  0.535334  1
  Si  Si925  1  0.927920  0.946908  0.421314  1
  Si  Si926  1  0.660655  0.786267  0.615485  1
  Si  Si927  1  0.660979  0.875228  0.558289  1
  Si  Si928  1  0.928160  0.696931  0.501312  1
  Si  Si929  1  0.016716  0.786257  0.501343  1
  Si  Si930  1  0.338496  0.875206  0.615522  1
  Si  Si931  1  0.927904  0.696902  0.558264  1
  Si  Si932  1  0.928183  0.946927  0.478102  1
  Si  Si933  1  0.016821  0.946902  0.421323  1
  Si  Si934  1  0.338585  0.786246  0.615493  1
  Si  Si935  1  0.927783  0.875196  0.558313  1
  Si  Si936  1  0.016801  0.696903  0.501299  1
  Si  Si937  1  0.838811  0.786270  0.501328  1
  Si  Si938  1  0.571703  0.875214  0.615503  1
  Si  Si939  1  0.839278  0.696916  0.558273  1
  Si  Si940  1  0.839306  0.946911  0.478084  1
  Si  Si941  1  0.839161  0.713823  0.478123  1
  Si  Si942  1  0.571671  0.803154  0.592294  1
  Si  Si943  1  0.483147  0.713796  0.592271  1
  Si  Si944  1  0.571958  0.803139  0.535331  1
  Si  Si945  1  0.839188  0.963808  0.558307  1
  Si  Si946  1  0.838874  0.874846  0.501312  1
  Si  Si947  1  0.161272  0.713790  0.478125  1
  Si  Si948  1  0.483057  0.803152  0.592300  1
  Si  Si949  1  0.516728  0.036226  0.421341  1
  Si  Si950  1  0.838496  0.125201  0.421339  1
  Si  Si951  1  0.160697  0.286227  0.615485  1
  Si  Si952  1  0.428203  0.196878  0.501310  1
  Si  Si953  1  0.516730  0.286233  0.501338  1
  Si  Si954  1  0.427899  0.196906  0.558280  1
  Si  Si955  1  0.160644  0.036250  0.535314  1
  Si  Si956  1  0.160981  0.125200  0.592303  1
  Si  Si957  1  0.838582  0.036242  0.421325  1
  Si  Si958  1  0.427809  0.125173  0.421348  1
  Si  Si959  1  0.838574  0.286267  0.615493  1
  Si  Si960  1  0.516815  0.196880  0.501305  1
  Si  Si961  1  0.338866  0.286218  0.501322  1
  Si  Si962  1  0.339319  0.196870  0.558274  1
  Si  Si963  1  0.338812  0.036240  0.535324  1
  Si  Si964  1  0.071707  0.125188  0.592286  1
  Si  Si965  1  0.339212  0.213764  0.478122  1
  Si  Si966  1  0.338880  0.124813  0.535323  1
  Si  Si967  1  0.071704  0.303111  0.592295  1
  Si  Si968  1  0.983135  0.213794  0.592272  1
  Si  Si969  1  0.661367  0.124827  0.478090  1
  Si  Si970  1  0.071961  0.303135  0.535341  1
  Si  Si971  1  0.071652  0.053134  0.615520  1
  Si  Si972  1  0.661280  0.213786  0.478124  1
  Si  Si973  1  0.072049  0.124857  0.535307  1
  Si  Si974  1  0.983060  0.303143  0.592310  1
  Si  Si975  1  0.161048  0.213775  0.592282  1
  Si  Si976  1  0.428162  0.124819  0.478106  1
  Si  Si977  1  0.160591  0.303119  0.535332  1
  Si  Si978  1  0.160542  0.053139  0.615532  1
  Si  Si979  1  0.160563  0.553132  0.615528  1
  Si  Si980  1  0.516735  0.536244  0.421341  1
  Si  Si981  1  0.838494  0.625208  0.421332  1
  Si  Si982  1  0.427901  0.446918  0.421316  1
  Si  Si983  1  0.161034  0.375174  0.558281  1
  Si  Si984  1  0.838501  0.375220  0.615529  1
  Si  Si985  1  0.160693  0.536227  0.535298  1
  Si  Si986  1  0.161000  0.625189  0.592296  1
  Si  Si987  1  0.428193  0.446892  0.478092  1
  Si  Si988  1  0.838587  0.536246  0.421315  1
  Si  Si989  1  0.427796  0.625189  0.421354  1
  Si  Si990  1  0.516813  0.446894  0.421324  1
  Si  Si991  1  0.427797  0.375181  0.558306  1
  Si  Si992  1  0.071756  0.375165  0.615496  1
  Si  Si993  1  0.338832  0.536232  0.535326  1
  Si  Si994  1  0.071735  0.625170  0.592276  1
  Si  Si995  1  0.339315  0.446882  0.478074  1
  Si  Si996  1  0.338873  0.624819  0.535328  1
  Si  Si997  1  0.661371  0.624832  0.478080  1
  Si  Si998  1  0.339185  0.463776  0.558302  1
  Si  Si999  1  0.338898  0.374809  0.501297  1
  Si  Si1000  1  0.071696  0.553111  0.615506  1
  Si  Si1001  1  0.072065  0.624830  0.535300  1
  Si  Si1002  1  0.428138  0.624836  0.478116  1
  Si  Si1003  1  0.161066  0.463765  0.558271  1
  Si  Si1004  1  0.428156  0.374829  0.501321  1
  Si  Si1005  1  0.160998  0.963795  0.558291  1
  Si  Si1006  1  0.428115  0.874840  0.501324  1
  Si  Si1007  1  0.427875  0.946912  0.421315  1
  Si  Si1008  1  0.160673  0.786236  0.615494  1
  Si  Si1009  1  0.160960  0.875206  0.558305  1
  Si  Si1010  1  0.428158  0.696909  0.501325  1
  Si  Si1011  1  0.516723  0.786241  0.501329  1
  Si  Si1012  1  0.838492  0.875193  0.615530  1
  Si  Si1013  1  0.427910  0.696901  0.558273  1
  Si  Si1014  1  0.428147  0.946904  0.478097  1
  Si  Si1015  1  0.516795  0.946881  0.421320  1
  Si  Si1016  1  0.838571  0.786237  0.615491  1
  Si  Si1017  1  0.427795  0.875186  0.558297  1
  Si  Si1018  1  0.516808  0.696887  0.501303  1
  Si  Si1019  1  0.338791  0.786250  0.501346  1
  Si  Si1020  1  0.071709  0.875176  0.615513  1
  Si  Si1021  1  0.339296  0.696885  0.558283  1
  Si  Si1022  1  0.339267  0.946894  0.478080  1
  Si  Si1023  1  0.339164  0.713781  0.478140  1
  Si  Si1024  1  0.071663  0.803118  0.592311  1
  Si  Si1025  1  0.983129  0.713773  0.592271  1
  Si  Si1026  1  0.071940  0.803125  0.535350  1
  Si  Si1027  1  0.339164  0.963783  0.558299  1
  Si  Si1028  1  0.338831  0.874837  0.501312  1
  Si  Si1029  1  0.661280  0.713794  0.478111  1
  Si  Si1030  1  0.983041  0.803128  0.592318  1
  Si  Si1031  1  0.161041  0.713775  0.592284  1
  Si  Si1032  1  0.160542  0.803134  0.535349  1
  H  H1033  1  0.993197  0.072870  0.113399  1
  H  H1034  1  0.249880  0.177202  0.113412  1
  H  H1035  1  0.249965  0.072858  0.113378  1
  H  H1036  1  0.888855  0.177196  0.113416  1
  H  H1037  1  0.993165  0.572887  0.113403  1
  H  H1038  1  0.888989  0.433833  0.113370  1
  H  H1039  1  0.993255  0.433847  0.113389  1
  H  H1040  1  0.249977  0.572846  0.113378  1
  H  H1041  1  0.249868  0.677204  0.113419  1
  H  H1042  1  0.889000  0.933831  0.113375  1
  H  H1043  1  0.993268  0.933841  0.113393  1
  H  H1044  1  0.888840  0.677212  0.113415  1
  H  H1045  1  0.493208  0.072824  0.113402  1
  H  H1046  1  0.749876  0.177192  0.113414  1
  H  H1047  1  0.749984  0.072833  0.113385  1
  H  H1048  1  0.388889  0.177161  0.113415  1
  H  H1049  1  0.493200  0.572848  0.113406  1
  H  H1050  1  0.389000  0.433821  0.113368  1
  H  H1051  1  0.493273  0.433814  0.113385  1
  H  H1052  1  0.749988  0.572841  0.113373  1
  H  H1053  1  0.749876  0.677196  0.113401  1
  H  H1054  1  0.388953  0.933829  0.113373  1
  H  H1055  1  0.493239  0.933811  0.113386  1
  H  H1056  1  0.388853  0.677181  0.113429  1
  H  H1057  1  0.610988  0.322877  0.659846  1
  H  H1058  1  0.249972  0.322854  0.659857  1
  H  H1059  1  0.610883  0.066215  0.659895  1
  H  H1060  1  0.506606  0.066225  0.659877  1
  H  H1061  1  0.249865  0.427210  0.659887  1
  H  H1062  1  0.506651  0.427215  0.659864  1
  H  H1063  1  0.610868  0.566231  0.659896  1
  H  H1064  1  0.506592  0.566233  0.659881  1
  H  H1065  1  0.610968  0.822868  0.659844  1
  H  H1066  1  0.249880  0.927200  0.659877  1
  H  H1067  1  0.249988  0.822842  0.659852  1
  H  H1068  1  0.506650  0.927206  0.659858  1
  H  H1069  1  0.111013  0.322841  0.659842  1
  H  H1070  1  0.749980  0.322858  0.659850  1
  H  H1071  1  0.110859  0.066210  0.659888  1
  H  H1072  1  0.006576  0.066212  0.659876  1
  H  H1073  1  0.749885  0.427208  0.659884  1
  H  H1074  1  0.006693  0.427163  0.659852  1
  H  H1075  1  0.110864  0.566215  0.659887  1
  H  H1076  1  0.006611  0.566196  0.659863  1
  H  H1077  1  0.110995  0.822846  0.659849  1
  H  H1078  1  0.749875  0.927178  0.659887  1
  H  H1079  1  0.749973  0.822828  0.659847  1
  H  H1080  1  0.006656  0.927169  0.659869  1
