# generated using pymatgen
data_Si23H2O47
_symmetry_space_group_name_H-M   'P 1'
_cell_length_a   34.60850121
_cell_length_b   34.61039952
_cell_length_c   109.84716122
_cell_angle_alpha   90.00000000
_cell_angle_beta   45.00674678
_cell_angle_gamma   59.99402408
_symmetry_Int_Tables_number   1
_chemical_formula_structural   Si23H2O47
_chemical_formula_sum   'Si552 H48 O1128'
_cell_volume   65791.8447496
_cell_formula_units_Z   24
loop_
 _symmetry_equiv_pos_site_id
 _symmetry_equiv_pos_as_xyz
  1  'x, y, z'
loop_
 _atom_site_type_symbol
 _atom_site_label
 _atom_site_symmetry_multiplicity
 _atom_site_fract_x
 _atom_site_fract_y
 _atom_site_fract_z
 _atom_site_occupancy
  O  O1  1  0.398104  0.101854  0.087045  1
  O  O2  1  0.648181  0.250045  0.243749  1
  O  O3  1  0.953493  0.148223  0.153067  1
  O  O4  1  0.101669  0.250032  0.153082  1
  O  O5  1  0.398176  0.000000  0.087029  1
  O  O6  1  0.000000  0.148224  0.198400  1
  O  O7  1  0.851675  0.000000  0.198425  1
  O  O8  1  0.648100  0.101867  0.243780  1
  O  O9  1  0.398180  0.250029  0.243754  1
  O  O10  1  0.101744  0.148212  0.153056  1
  O  O11  1  0.851659  0.250038  0.153079  1
  O  O12  1  0.851742  0.148223  0.198407  1
  O  O13  1  0.546371  0.101847  0.243763  1
  O  O14  1  0.345900  0.077049  0.112624  1
  O  O15  1  0.633787  0.327060  0.241436  1
  O  O16  1  0.749898  0.327059  0.189696  1
  O  O17  1  0.866137  0.210844  0.189683  1
  O  O18  1  0.962032  0.327046  0.189707  1
  O  O19  1  0.345900  0.327048  0.241451  1
  O  O20  1  0.962108  0.210839  0.189678  1
  O  O21  1  0.633817  0.077046  0.207134  1
  O  O22  1  0.749901  0.077063  0.207149  1
  O  O23  1  0.537748  0.039223  0.284211  1
  O  O24  1  0.866046  0.173028  0.155395  1
  O  O25  1  0.749941  0.173021  0.207132  1
  O  O26  1  0.633700  0.289243  0.207148  1
  O  O27  1  0.537815  0.173027  0.207131  1
  O  O28  1  0.153945  0.173004  0.155383  1
  O  O29  1  0.537730  0.289231  0.207155  1
  O  O30  1  0.633721  0.039237  0.241464  1
  O  O31  1  0.367276  0.135420  0.115969  1
  O  O32  1  0.749975  0.247256  0.228555  1
  O  O33  1  0.888046  0.247252  0.167030  1
  O  O34  1  0.005454  0.247247  0.167028  1
  O  O35  1  0.367374  0.247236  0.228559  1
  O  O36  1  0.611771  0.135447  0.229815  1
  O  O37  1  0.494393  0.002827  0.280870  1
  O  O38  1  0.132471  0.002801  0.280877  1
  O  O39  1  0.749861  0.252829  0.168274  1
  O  O40  1  0.888076  0.114634  0.168258  1
  O  O41  1  0.611787  0.252833  0.229801  1
  O  O42  1  0.494377  0.252836  0.229810  1
  O  O43  1  0.132579  0.114617  0.168243  1
  O  O44  1  0.132480  0.252808  0.168275  1
  O  O45  1  0.749876  0.002834  0.228586  1
  O  O46  1  0.611825  0.002814  0.228569  1
  O  O47  1  0.993197  0.072870  0.127994  1
  O  O48  1  0.249880  0.177202  0.128003  1
  O  O49  1  0.610988  0.322877  0.268823  1
  O  O50  1  0.993251  0.183852  0.160435  1
  O  O51  1  0.993194  0.322875  0.160457  1
  O  O52  1  0.888968  0.183856  0.206903  1
  O  O53  1  0.610992  0.072868  0.189911  1
  O  O54  1  0.645623  0.177218  0.236387  1
  O  O55  1  0.249965  0.072858  0.127979  1
  O  O56  1  0.888855  0.177196  0.128006  1
  O  O57  1  0.249972  0.322854  0.268831  1
  O  O58  1  0.854226  0.322861  0.160445  1
  O  O59  1  0.854224  0.072870  0.189918  1
  O  O60  1  0.506660  0.177201  0.236379  1
  O  O61  1  0.610883  0.066215  0.268857  1
  O  O62  1  0.506580  0.316239  0.236398  1
  O  O63  1  0.610864  0.316222  0.189928  1
  O  O64  1  0.506606  0.066225  0.268844  1
  O  O65  1  0.499986  0.148209  0.198408  1
  O  O66  1  0.648199  0.000000  0.198411  1
  O  O67  1  0.398092  0.601866  0.087049  1
  O  O68  1  0.648092  0.351864  0.198422  1
  O  O69  1  0.953471  0.648231  0.153069  1
  O  O70  1  0.398085  0.351863  0.243778  1
  O  O71  1  0.000000  0.648191  0.198395  1
  O  O72  1  0.648195  0.500029  0.198408  1
  O  O73  1  0.648095  0.601864  0.243776  1
  O  O74  1  0.953496  0.398221  0.153069  1
  O  O75  1  0.398184  0.500035  0.087032  1
  O  O76  1  0.101753  0.648195  0.153053  1
  O  O77  1  0.546342  0.351865  0.243764  1
  O  O78  1  0.851735  0.648215  0.198406  1
  O  O79  1  0.851663  0.500038  0.198423  1
  O  O80  1  0.546359  0.601845  0.243762  1
  O  O81  1  0.851760  0.398203  0.153056  1
  O  O82  1  0.345895  0.577055  0.112628  1
  O  O83  1  0.633811  0.577037  0.207131  1
  O  O84  1  0.749894  0.577059  0.207145  1
  O  O85  1  0.866153  0.460826  0.155367  1
  O  O86  1  0.537818  0.423033  0.284201  1
  O  O87  1  0.153946  0.423005  0.284205  1
  O  O88  1  0.537736  0.539241  0.284215  1
  O  O89  1  0.866044  0.423030  0.189701  1
  O  O90  1  0.749958  0.423007  0.189688  1
  O  O91  1  0.633708  0.539238  0.241464  1
  O  O92  1  0.367266  0.635429  0.115973  1
  O  O93  1  0.367372  0.497246  0.115953  1
  O  O94  1  0.611764  0.385449  0.228571  1
  O  O95  1  0.367267  0.385424  0.228586  1
  O  O96  1  0.749995  0.497232  0.168246  1
  O  O97  1  0.611769  0.635436  0.229810  1
  O  O98  1  0.888039  0.497252  0.168263  1
  O  O99  1  0.494386  0.502840  0.280875  1
  O  O100  1  0.132594  0.364612  0.280860  1
  O  O101  1  0.132467  0.502815  0.280879  1
  O  O102  1  0.888056  0.614641  0.168258  1
  O  O103  1  0.132584  0.614601  0.168241  1
  O  O104  1  0.749866  0.502833  0.228585  1
  O  O105  1  0.888090  0.364623  0.167020  1
  O  O106  1  0.611811  0.502815  0.228570  1
  O  O107  1  0.993165  0.572887  0.127996  1
  O  O108  1  0.888989  0.433833  0.127974  1
  O  O109  1  0.645626  0.427211  0.206914  1
  O  O110  1  0.249865  0.427210  0.268851  1
  O  O111  1  0.611007  0.572857  0.189902  1
  O  O112  1  0.993255  0.433847  0.127987  1
  O  O113  1  0.249977  0.572846  0.127979  1
  O  O114  1  0.888866  0.427202  0.206925  1
  O  O115  1  0.506651  0.427215  0.268835  1
  O  O116  1  0.854218  0.572865  0.189914  1
  O  O117  1  0.610868  0.566231  0.268858  1
  O  O118  1  0.506592  0.566233  0.268847  1
  O  O119  1  0.499990  0.398220  0.087024  1
  O  O120  1  0.000000  0.351845  0.198428  1
  O  O121  1  0.648169  0.750040  0.243745  1
  O  O122  1  0.648081  0.851880  0.198420  1
  O  O123  1  0.101659  0.750025  0.153086  1
  O  O124  1  0.398105  0.851853  0.243766  1
  O  O125  1  0.953501  0.898222  0.153072  1
  O  O126  1  0.398203  0.750022  0.243745  1
  O  O127  1  0.851655  0.750046  0.153078  1
  O  O128  1  0.546346  0.851859  0.243757  1
  O  O129  1  0.851763  0.898207  0.153059  1
  O  O130  1  0.633791  0.827049  0.241430  1
  O  O131  1  0.749890  0.827065  0.189695  1
  O  O132  1  0.866127  0.710840  0.189684  1
  O  O133  1  0.962018  0.827036  0.189710  1
  O  O134  1  0.345907  0.827043  0.241444  1
  O  O135  1  0.962118  0.710814  0.189675  1
  O  O136  1  0.866155  0.960832  0.155371  1
  O  O137  1  0.537808  0.923022  0.284200  1
  O  O138  1  0.153954  0.922994  0.284205  1
  O  O139  1  0.866020  0.673045  0.155397  1
  O  O140  1  0.749934  0.673015  0.207129  1
  O  O141  1  0.633699  0.789251  0.207140  1
  O  O142  1  0.537840  0.673013  0.207120  1
  O  O143  1  0.153942  0.672993  0.155384  1
  O  O144  1  0.537747  0.789229  0.207142  1
  O  O145  1  0.866049  0.923031  0.189703  1
  O  O146  1  0.749963  0.923005  0.189688  1
  O  O147  1  0.367358  0.997242  0.115950  1
  O  O148  1  0.749968  0.747243  0.228555  1
  O  O149  1  0.611761  0.885448  0.228568  1
  O  O150  1  0.888031  0.747256  0.167033  1
  O  O151  1  0.005453  0.747233  0.167028  1
  O  O152  1  0.367271  0.885421  0.228577  1
  O  O153  1  0.367385  0.747228  0.228555  1
  O  O154  1  0.749996  0.997240  0.168250  1
  O  O155  1  0.888047  0.997256  0.168266  1
  O  O156  1  0.132600  0.864603  0.280861  1
  O  O157  1  0.749849  0.752851  0.168270  1
  O  O158  1  0.611795  0.752826  0.229791  1
  O  O159  1  0.494409  0.752823  0.229795  1
  O  O160  1  0.132463  0.752799  0.168281  1
  O  O161  1  0.888091  0.864625  0.167023  1
  O  O162  1  0.249868  0.677204  0.128008  1
  O  O163  1  0.889000  0.933831  0.127977  1
  O  O164  1  0.610968  0.822868  0.268821  1
  O  O165  1  0.645622  0.927219  0.206915  1
  O  O166  1  0.993246  0.683843  0.160435  1
  O  O167  1  0.993191  0.822870  0.160460  1
  O  O168  1  0.249880  0.927200  0.268844  1
  O  O169  1  0.888975  0.683832  0.206899  1
  O  O170  1  0.645609  0.677217  0.236383  1
  O  O171  1  0.993268  0.933841  0.127989  1
  O  O172  1  0.888840  0.677212  0.128005  1
  O  O173  1  0.249988  0.822842  0.268827  1
  O  O174  1  0.888864  0.927193  0.206929  1
  O  O175  1  0.854231  0.822861  0.160446  1
  O  O176  1  0.506650  0.927206  0.268831  1
  O  O177  1  0.506670  0.677195  0.236372  1
  O  O178  1  0.506593  0.816235  0.236386  1
  O  O179  1  0.610859  0.816236  0.189922  1
  O  O180  1  0.499965  0.898210  0.087023  1
  O  O181  1  0.148204  0.250002  0.243747  1
  O  O182  1  0.453525  0.148172  0.153066  1
  O  O183  1  0.601669  0.250010  0.153084  1
  O  O184  1  0.351653  0.000000  0.198418  1
  O  O185  1  0.148089  0.101841  0.243771  1
  O  O186  1  0.898190  0.250030  0.243745  1
  O  O187  1  0.601763  0.148179  0.153059  1
  O  O188  1  0.351706  0.249989  0.153077  1
  O  O189  1  0.351775  0.148166  0.198408  1
  O  O190  1  0.046338  0.101838  0.243761  1
  O  O191  1  0.462039  0.077009  0.112630  1
  O  O192  1  0.133839  0.327003  0.241428  1
  O  O193  1  0.249945  0.327015  0.189691  1
  O  O194  1  0.366169  0.210788  0.189683  1
  O  O195  1  0.462033  0.327016  0.189706  1
  O  O196  1  0.845907  0.327062  0.241446  1
  O  O197  1  0.462119  0.210808  0.189682  1
  O  O198  1  0.133790  0.077024  0.207130  1
  O  O199  1  0.249890  0.077041  0.207141  1
  O  O200  1  0.037728  0.039220  0.284211  1
  O  O201  1  0.366076  0.172984  0.155395  1
  O  O202  1  0.249970  0.172977  0.207131  1
  O  O203  1  0.133737  0.289200  0.207140  1
  O  O204  1  0.037824  0.173015  0.207121  1
  O  O205  1  0.653957  0.172988  0.155385  1
  O  O206  1  0.037744  0.289228  0.207150  1
  O  O207  1  0.133687  0.039223  0.241461  1
  O  O208  1  0.250010  0.247198  0.228554  1
  O  O209  1  0.388085  0.247203  0.167029  1
  O  O210  1  0.505471  0.247206  0.167027  1
  O  O211  1  0.867370  0.247260  0.228553  1
  O  O212  1  0.111762  0.135424  0.229807  1
  O  O213  1  0.994387  0.002809  0.280871  1
  O  O214  1  0.632486  0.002791  0.280880  1
  O  O215  1  0.249899  0.252790  0.168270  1
  O  O216  1  0.388102  0.114589  0.168258  1
  O  O217  1  0.111830  0.252787  0.229792  1
  O  O218  1  0.994404  0.252815  0.229798  1
  O  O219  1  0.632584  0.114616  0.168251  1
  O  O220  1  0.632478  0.252800  0.168278  1
  O  O221  1  0.249851  0.002808  0.228580  1
  O  O222  1  0.111778  0.002809  0.228570  1
  O  O223  1  0.493208  0.072824  0.127996  1
  O  O224  1  0.749876  0.177192  0.128004  1
  O  O225  1  0.111013  0.322841  0.268820  1
  O  O226  1  0.493280  0.183798  0.160436  1
  O  O227  1  0.493206  0.322836  0.160454  1
  O  O228  1  0.388996  0.183811  0.206905  1
  O  O229  1  0.110966  0.072863  0.189906  1
  O  O230  1  0.145627  0.177185  0.236382  1
  O  O231  1  0.749984  0.072833  0.127984  1
  O  O232  1  0.388889  0.177161  0.128005  1
  O  O233  1  0.749980  0.322858  0.268826  1
  O  O234  1  0.354271  0.322813  0.160438  1
  O  O235  1  0.354234  0.072824  0.189913  1
  O  O236  1  0.006656  0.177186  0.236371  1
  O  O237  1  0.110859  0.066210  0.268852  1
  O  O238  1  0.006616  0.316202  0.236390  1
  O  O239  1  0.110897  0.316201  0.189923  1
  O  O240  1  0.006576  0.066212  0.268844  1
  O  O241  1  0.148151  0.000000  0.198411  1
  O  O242  1  0.499880  0.101821  0.087051  1
  O  O243  1  0.601677  0.500023  0.087045  1
  O  O244  1  0.148140  0.351818  0.198415  1
  O  O245  1  0.453484  0.648203  0.153075  1
  O  O246  1  0.898108  0.351854  0.243773  1
  O  O247  1  0.148217  0.499993  0.198397  1
  O  O248  1  0.148107  0.601833  0.243767  1
  O  O249  1  0.453515  0.398186  0.153065  1
  O  O250  1  0.601762  0.398195  0.087029  1
  O  O251  1  0.601761  0.648185  0.153055  1
  O  O252  1  0.046393  0.351813  0.243755  1
  O  O253  1  0.351759  0.648178  0.198413  1
  O  O254  1  0.351670  0.500005  0.198421  1
  O  O255  1  0.046378  0.601814  0.243752  1
  O  O256  1  0.351786  0.398170  0.153048  1
  O  O257  1  0.462041  0.577022  0.112631  1
  O  O258  1  0.462118  0.460823  0.112620  1
  O  O259  1  0.133821  0.577009  0.207122  1
  O  O260  1  0.249915  0.577027  0.207138  1
  O  O261  1  0.366159  0.460802  0.155366  1
  O  O262  1  0.037842  0.423001  0.284195  1
  O  O263  1  0.653952  0.423010  0.284207  1
  O  O264  1  0.037735  0.539225  0.284209  1
  O  O265  1  0.366060  0.422993  0.189696  1
  O  O266  1  0.249986  0.422971  0.189677  1
  O  O267  1  0.133722  0.539206  0.241455  1
  O  O268  1  0.505476  0.497217  0.115960  1
  O  O269  1  0.111816  0.385398  0.228563  1
  O  O270  1  0.867274  0.385446  0.228585  1
  O  O271  1  0.250007  0.497205  0.168240  1
  O  O272  1  0.111787  0.635409  0.229800  1
  O  O273  1  0.388068  0.497216  0.168258  1
  O  O274  1  0.994411  0.502803  0.280865  1
  O  O275  1  0.632585  0.364631  0.280861  1
  O  O276  1  0.632479  0.502820  0.280882  1
  O  O277  1  0.388100  0.614591  0.168261  1
  O  O278  1  0.632602  0.614611  0.168242  1
  O  O279  1  0.249871  0.502802  0.228580  1
  O  O280  1  0.388109  0.364591  0.167014  1
  O  O281  1  0.111836  0.502781  0.228558  1
  O  O282  1  0.493200  0.572848  0.127999  1
  O  O283  1  0.389000  0.433821  0.127972  1
  O  O284  1  0.145665  0.427165  0.206905  1
  O  O285  1  0.749885  0.427208  0.268849  1
  O  O286  1  0.111008  0.572832  0.189896  1
  O  O287  1  0.493273  0.433814  0.127984  1
  O  O288  1  0.749988  0.572841  0.127976  1
  O  O289  1  0.388864  0.427173  0.206925  1
  O  O290  1  0.006693  0.427163  0.268827  1
  O  O291  1  0.354235  0.572828  0.189918  1
  O  O292  1  0.110864  0.566215  0.268851  1
  O  O293  1  0.006611  0.566196  0.268834  1
  O  O294  1  0.500005  0.648199  0.198399  1
  O  O295  1  0.499862  0.601845  0.087056  1
  O  O296  1  0.000000  0.398203  0.309776  1
  O  O297  1  0.499865  0.351830  0.198429  1
  O  O298  1  0.601669  0.000000  0.087045  1
  O  O299  1  0.148190  0.750005  0.243751  1
  O  O300  1  0.148079  0.851841  0.198429  1
  O  O301  1  0.601667  0.750016  0.153075  1
  O  O302  1  0.898092  0.851833  0.243777  1
  O  O303  1  0.453468  0.898199  0.153068  1
  O  O304  1  0.601747  0.898175  0.087028  1
  O  O305  1  0.898185  0.750003  0.243744  1
  O  O306  1  0.351641  0.750014  0.153093  1
  O  O307  1  0.046345  0.851821  0.243768  1
  O  O308  1  -0.000000  0.851834  0.198435  1
  O  O309  1  0.351724  0.898190  0.153056  1
  O  O310  1  0.462100  0.960811  0.112617  1
  O  O311  1  0.133806  0.827013  0.241435  1
  O  O312  1  0.249870  0.827048  0.189708  1
  O  O313  1  0.366136  0.710809  0.189691  1
  O  O314  1  0.462033  0.827022  0.189699  1
  O  O315  1  0.845902  0.827033  0.241445  1
  O  O316  1  0.462120  0.710810  0.189680  1
  O  O317  1  0.366114  0.960814  0.155369  1
  O  O318  1  0.037836  0.923002  0.284199  1
  O  O319  1  0.653946  0.922982  0.284205  1
  O  O320  1  0.366037  0.672998  0.155405  1
  O  O321  1  0.249963  0.672981  0.207133  1
  O  O322  1  0.133688  0.789216  0.207153  1
  O  O323  1  0.037824  0.672994  0.207120  1
  O  O324  1  0.653954  0.672998  0.155379  1
  O  O325  1  0.037725  0.789216  0.207156  1
  O  O326  1  0.366029  0.923001  0.189697  1
  O  O327  1  0.249920  0.923000  0.189688  1
  O  O328  1  0.505458  0.997203  0.115959  1
  O  O329  1  0.249986  0.747211  0.228561  1
  O  O330  1  0.111743  0.885425  0.228579  1
  O  O331  1  0.388017  0.747241  0.167045  1
  O  O332  1  0.505460  0.747214  0.167026  1
  O  O333  1  0.867258  0.885428  0.228588  1
  O  O334  1  0.867379  0.747227  0.228550  1
  O  O335  1  0.249956  0.997222  0.168248  1
  O  O336  1  0.388027  0.997229  0.168259  1
  O  O337  1  0.632571  0.864609  0.280860  1
  O  O338  1  0.249852  0.752803  0.168282  1
  O  O339  1  0.111814  0.752787  0.229797  1
  O  O340  1  0.994391  0.752797  0.229801  1
  O  O341  1  0.632482  0.752813  0.168267  1
  O  O342  1  0.388055  0.864610  0.167021  1
  O  O343  1  0.749876  0.677196  0.127996  1
  O  O344  1  0.388953  0.933829  0.127976  1
  O  O345  1  0.110995  0.822846  0.268825  1
  O  O346  1  0.145591  0.927197  0.206921  1
  O  O347  1  0.493250  0.683820  0.160440  1
  O  O348  1  0.493179  0.822844  0.160452  1
  O  O349  1  0.749875  0.927178  0.268851  1
  O  O350  1  0.388989  0.683817  0.206906  1
  O  O351  1  0.145635  0.677177  0.236380  1
  O  O352  1  0.493239  0.933811  0.127985  1
  O  O353  1  0.388853  0.677181  0.128015  1
  O  O354  1  0.749973  0.822828  0.268824  1
  O  O355  1  0.388852  0.927180  0.206921  1
  O  O356  1  0.354195  0.822843  0.160452  1
  O  O357  1  0.006656  0.927169  0.268838  1
  O  O358  1  0.006670  0.677162  0.236367  1
  O  O359  1  0.006586  0.816193  0.236399  1
  O  O360  1  0.110858  0.816205  0.189933  1
  O  O361  1  0.499864  0.851838  0.198422  1
  O  O362  1  0.398104  0.101854  0.309800  1
  O  O363  1  0.648181  0.250045  0.466504  1
  O  O364  1  0.953493  0.148223  0.375822  1
  O  O365  1  0.101669  0.250032  0.375837  1
  O  O366  1  0.398176  0.000000  0.309784  1
  O  O367  1  -0.000000  0.148224  0.421156  1
  O  O368  1  0.851675  0.000000  0.421180  1
  O  O369  1  0.648100  0.101867  0.466535  1
  O  O370  1  0.398180  0.250029  0.466509  1
  O  O371  1  0.101744  0.148212  0.375811  1
  O  O372  1  0.851659  0.250038  0.375834  1
  O  O373  1  0.851742  0.148223  0.421162  1
  O  O374  1  0.546371  0.101847  0.466519  1
  O  O375  1  0.962033  0.077035  0.335384  1
  O  O376  1  0.345900  0.077049  0.335379  1
  O  O377  1  0.633787  0.327060  0.464191  1
  O  O378  1  0.749898  0.327059  0.412451  1
  O  O379  1  0.866137  0.210844  0.412438  1
  O  O380  1  0.962032  0.327046  0.412462  1
  O  O381  1  0.345900  0.327048  0.464206  1
  O  O382  1  0.962108  0.210839  0.412433  1
  O  O383  1  0.633817  0.077046  0.429889  1
  O  O384  1  0.749901  0.077063  0.429904  1
  O  O385  1  0.537748  0.039223  0.506966  1
  O  O386  1  0.866046  0.173028  0.378150  1
  O  O387  1  0.749941  0.173021  0.429887  1
  O  O388  1  0.633700  0.289243  0.429903  1
  O  O389  1  0.537815  0.173027  0.429886  1
  O  O390  1  0.153945  0.173004  0.378139  1
  O  O391  1  0.537730  0.289231  0.429910  1
  O  O392  1  0.633721  0.039237  0.464219  1
  O  O393  1  0.367276  0.135420  0.338724  1
  O  O394  1  0.749975  0.247256  0.451310  1
  O  O395  1  0.888046  0.247252  0.389785  1
  O  O396  1  0.005454  0.247247  0.389784  1
  O  O397  1  0.367374  0.247236  0.451314  1
  O  O398  1  0.611771  0.135447  0.452570  1
  O  O399  1  0.494393  0.002827  0.503625  1
  O  O400  1  0.132471  0.002801  0.503632  1
  O  O401  1  0.749861  0.252829  0.391029  1
  O  O402  1  0.888076  0.114634  0.391013  1
  O  O403  1  0.611787  0.252833  0.452556  1
  O  O404  1  0.494377  0.252836  0.452565  1
  O  O405  1  0.132579  0.114617  0.390999  1
  O  O406  1  0.132480  0.252808  0.391031  1
  O  O407  1  0.749876  0.002834  0.451341  1
  O  O408  1  0.611825  0.002814  0.451325  1
  O  O409  1  0.993197  0.072870  0.350749  1
  O  O410  1  0.249880  0.177202  0.350758  1
  O  O411  1  0.610988  0.322877  0.491578  1
  O  O412  1  0.993251  0.183852  0.383190  1
  O  O413  1  0.993194  0.322875  0.383212  1
  O  O414  1  0.888968  0.183856  0.429658  1
  O  O415  1  0.610992  0.072868  0.412666  1
  O  O416  1  0.645623  0.177218  0.459142  1
  O  O417  1  0.249965  0.072858  0.350734  1
  O  O418  1  0.888855  0.177196  0.350761  1
  O  O419  1  0.249972  0.322854  0.491586  1
  O  O420  1  0.854226  0.322861  0.383200  1
  O  O421  1  0.854224  0.072870  0.412673  1
  O  O422  1  0.506660  0.177201  0.459135  1
  O  O423  1  0.610883  0.066215  0.491612  1
  O  O424  1  0.506580  0.316239  0.459153  1
  O  O425  1  0.610864  0.316222  0.412684  1
  O  O426  1  0.506606  0.066225  0.491599  1
  O  O427  1  0.101674  0.000000  0.309796  1
  O  O428  1  0.499986  0.148209  0.421163  1
  O  O429  1  0.648199  0.000000  0.421166  1
  O  O430  1  0.101646  0.500043  0.309800  1
  O  O431  1  0.398092  0.601866  0.309804  1
  O  O432  1  0.648092  0.351864  0.421177  1
  O  O433  1  0.953471  0.648231  0.375824  1
  O  O434  1  0.398085  0.351863  0.466533  1
  O  O435  1  -0.000000  0.648191  0.421150  1
  O  O436  1  0.648195  0.500029  0.421164  1
  O  O437  1  0.648095  0.601864  0.466531  1
  O  O438  1  0.953496  0.398221  0.375825  1
  O  O439  1  0.398184  0.500035  0.309787  1
  O  O440  1  0.101748  0.398210  0.309787  1
  O  O441  1  0.101753  0.648195  0.375808  1
  O  O442  1  0.546342  0.351865  0.466519  1
  O  O443  1  0.851735  0.648215  0.421161  1
  O  O444  1  0.851663  0.500038  0.421179  1
  O  O445  1  0.546359  0.601845  0.466517  1
  O  O446  1  0.851760  0.398203  0.375811  1
  O  O447  1  0.962007  0.577053  0.335385  1
  O  O448  1  0.345895  0.577055  0.335383  1
  O  O449  1  0.962116  0.460826  0.335372  1
  O  O450  1  0.633811  0.577037  0.429886  1
  O  O451  1  0.749894  0.577059  0.429901  1
  O  O452  1  0.866153  0.460826  0.378122  1
  O  O453  1  0.537818  0.423033  0.506957  1
  O  O454  1  0.153946  0.423005  0.506960  1
  O  O455  1  0.537736  0.539241  0.506970  1
  O  O456  1  0.866044  0.423030  0.412456  1
  O  O457  1  0.749958  0.423007  0.412443  1
  O  O458  1  0.633708  0.539238  0.464220  1
  O  O459  1  0.005439  0.497250  0.338715  1
  O  O460  1  0.367266  0.635429  0.338729  1
  O  O461  1  0.367372  0.497246  0.338708  1
  O  O462  1  0.611764  0.385449  0.451326  1
  O  O463  1  0.367267  0.385424  0.451341  1
  O  O464  1  0.749995  0.497232  0.391002  1
  O  O465  1  0.611769  0.635436  0.452565  1
  O  O466  1  0.888039  0.497252  0.391018  1
  O  O467  1  0.494386  0.502840  0.503630  1
  O  O468  1  0.132594  0.364612  0.503615  1
  O  O469  1  0.132467  0.502815  0.503634  1
  O  O470  1  0.888056  0.614641  0.391013  1
  O  O471  1  0.132584  0.614601  0.390996  1
  O  O472  1  0.749866  0.502833  0.451340  1
  O  O473  1  0.888090  0.364623  0.389775  1
  O  O474  1  0.611811  0.502815  0.451326  1
  O  O475  1  0.993165  0.572887  0.350752  1
  O  O476  1  0.888989  0.433833  0.350729  1
  O  O477  1  0.645626  0.427211  0.429669  1
  O  O478  1  0.249865  0.427210  0.491606  1
  O  O479  1  0.611007  0.572857  0.412657  1
  O  O480  1  0.993255  0.433847  0.350742  1
  O  O481  1  0.249977  0.572846  0.350734  1
  O  O482  1  0.888866  0.427202  0.429681  1
  O  O483  1  0.506651  0.427215  0.491590  1
  O  O484  1  0.854218  0.572865  0.412669  1
  O  O485  1  0.610868  0.566231  0.491613  1
  O  O486  1  0.506592  0.566233  0.491602  1
  O  O487  1  0.499990  0.398220  0.309779  1
  O  O488  1  -0.000000  0.351845  0.421183  1
  O  O489  1  0.000000  0.898200  0.309779  1
  O  O490  1  0.648169  0.750040  0.466500  1
  O  O491  1  0.648081  0.851880  0.421175  1
  O  O492  1  0.101659  0.750025  0.375841  1
  O  O493  1  0.398105  0.851853  0.466521  1
  O  O494  1  0.953501  0.898222  0.375828  1
  O  O495  1  0.101769  0.898193  0.309786  1
  O  O496  1  0.398203  0.750022  0.466500  1
  O  O497  1  0.851655  0.750046  0.375833  1
  O  O498  1  0.546346  0.851859  0.466513  1
  O  O499  1  0.851763  0.898207  0.375814  1
  O  O500  1  0.962135  0.960818  0.335373  1
  O  O501  1  0.633791  0.827049  0.464185  1
  O  O502  1  0.749890  0.827065  0.412451  1
  O  O503  1  0.866127  0.710840  0.412439  1
  O  O504  1  0.962018  0.827036  0.412465  1
  O  O505  1  0.345907  0.827043  0.464199  1
  O  O506  1  0.962118  0.710814  0.412430  1
  O  O507  1  0.866155  0.960832  0.378126  1
  O  O508  1  0.537808  0.923022  0.506955  1
  O  O509  1  0.153954  0.922994  0.506960  1
  O  O510  1  0.866020  0.673045  0.378152  1
  O  O511  1  0.749934  0.673015  0.429884  1
  O  O512  1  0.633699  0.789251  0.429895  1
  O  O513  1  0.537840  0.673013  0.429876  1
  O  O514  1  0.153942  0.672993  0.378139  1
  O  O515  1  0.537747  0.789229  0.429897  1
  O  O516  1  0.866049  0.923031  0.412458  1
  O  O517  1  0.749963  0.923005  0.412444  1
  O  O518  1  0.005476  0.997230  0.338713  1
  O  O519  1  0.367358  0.997242  0.338705  1
  O  O520  1  0.749968  0.747243  0.451310  1
  O  O521  1  0.611761  0.885448  0.451324  1
  O  O522  1  0.888031  0.747256  0.389789  1
  O  O523  1  0.005453  0.747233  0.389784  1
  O  O524  1  0.367271  0.885421  0.451333  1
  O  O525  1  0.367385  0.747228  0.451310  1
  O  O526  1  0.749996  0.997240  0.391005  1
  O  O527  1  0.888047  0.997256  0.391021  1
  O  O528  1  0.132600  0.864603  0.503616  1
  O  O529  1  0.749849  0.752851  0.391025  1
  O  O530  1  0.611795  0.752826  0.452546  1
  O  O531  1  0.494409  0.752823  0.452550  1
  O  O532  1  0.132463  0.752799  0.391036  1
  O  O533  1  0.888091  0.864625  0.389778  1
  O  O534  1  0.249868  0.677204  0.350763  1
  O  O535  1  0.889000  0.933831  0.350732  1
  O  O536  1  0.610968  0.822868  0.491576  1
  O  O537  1  0.645622  0.927219  0.429670  1
  O  O538  1  0.993246  0.683843  0.383190  1
  O  O539  1  0.993191  0.822870  0.383215  1
  O  O540  1  0.249880  0.927200  0.491599  1
  O  O541  1  0.888975  0.683832  0.429654  1
  O  O542  1  0.645609  0.677217  0.459138  1
  O  O543  1  0.993268  0.933841  0.350745  1
  O  O544  1  0.888840  0.677212  0.350760  1
  O  O545  1  0.249988  0.822842  0.491582  1
  O  O546  1  0.888864  0.927193  0.429684  1
  O  O547  1  0.854231  0.822861  0.383201  1
  O  O548  1  0.506650  0.927206  0.491586  1
  O  O549  1  0.506670  0.677195  0.459127  1
  O  O550  1  0.506593  0.816235  0.459142  1
  O  O551  1  0.610859  0.816236  0.412677  1
  O  O552  1  0.499965  0.898210  0.309778  1
  O  O553  1  0.898091  0.101844  0.309799  1
  O  O554  1  0.148204  0.250002  0.466502  1
  O  O555  1  0.453525  0.148172  0.375821  1
  O  O556  1  0.601669  0.250010  0.375839  1
  O  O557  1  0.351653  0.000000  0.421173  1
  O  O558  1  0.148089  0.101841  0.466526  1
  O  O559  1  0.898190  0.250030  0.466500  1
  O  O560  1  0.601763  0.148179  0.375814  1
  O  O561  1  0.351706  0.249989  0.375832  1
  O  O562  1  0.351775  0.148166  0.421163  1
  O  O563  1  0.046338  0.101838  0.466517  1
  O  O564  1  0.462039  0.077009  0.335385  1
  O  O565  1  0.845909  0.077040  0.335379  1
  O  O566  1  0.133839  0.327003  0.464183  1
  O  O567  1  0.249945  0.327015  0.412446  1
  O  O568  1  0.366169  0.210788  0.412438  1
  O  O569  1  0.462033  0.327016  0.412461  1
  O  O570  1  0.845907  0.327062  0.464201  1
  O  O571  1  0.462119  0.210808  0.412438  1
  O  O572  1  0.133790  0.077024  0.429885  1
  O  O573  1  0.249890  0.077041  0.429896  1
  O  O574  1  0.037728  0.039220  0.506966  1
  O  O575  1  0.366076  0.172984  0.378150  1
  O  O576  1  0.249970  0.172977  0.429886  1
  O  O577  1  0.133737  0.289200  0.429895  1
  O  O578  1  0.037824  0.173015  0.429876  1
  O  O579  1  0.653957  0.172988  0.378140  1
  O  O580  1  0.037744  0.289228  0.429905  1
  O  O581  1  0.133687  0.039223  0.464216  1
  O  O582  1  0.867270  0.135426  0.338723  1
  O  O583  1  0.250010  0.247198  0.451310  1
  O  O584  1  0.388085  0.247203  0.389785  1
  O  O585  1  0.505471  0.247206  0.389783  1
  O  O586  1  0.867370  0.247260  0.451309  1
  O  O587  1  0.111762  0.135424  0.452562  1
  O  O588  1  0.994387  0.002809  0.503626  1
  O  O589  1  0.632486  0.002791  0.503635  1
  O  O590  1  0.249899  0.252790  0.391025  1
  O  O591  1  0.388102  0.114589  0.391013  1
  O  O592  1  0.111830  0.252787  0.452547  1
  O  O593  1  0.994404  0.252815  0.452554  1
  O  O594  1  0.632584  0.114616  0.391007  1
  O  O595  1  0.632478  0.252800  0.391033  1
  O  O596  1  0.249851  0.002808  0.451335  1
  O  O597  1  0.111778  0.002809  0.451325  1
  O  O598  1  0.493208  0.072824  0.350751  1
  O  O599  1  0.749876  0.177192  0.350759  1
  O  O600  1  0.111013  0.322841  0.491575  1
  O  O601  1  0.493280  0.183798  0.383192  1
  O  O602  1  0.493206  0.322836  0.383209  1
  O  O603  1  0.388996  0.183811  0.429660  1
  O  O604  1  0.110966  0.072863  0.412661  1
  O  O605  1  0.145627  0.177185  0.459137  1
  O  O606  1  0.749984  0.072833  0.350739  1
  O  O607  1  0.388889  0.177161  0.350760  1
  O  O608  1  0.749980  0.322858  0.491581  1
  O  O609  1  0.354271  0.322813  0.383193  1
  O  O610  1  0.354234  0.072824  0.412668  1
  O  O611  1  0.006656  0.177186  0.459126  1
  O  O612  1  0.110859  0.066210  0.491607  1
  O  O613  1  0.006616  0.316202  0.459146  1
  O  O614  1  0.110897  0.316201  0.412678  1
  O  O615  1  0.006576  0.066212  0.491599  1
  O  O616  1  -0.000000  0.101835  0.309804  1
  O  O617  1  0.898193  0.000000  0.309788  1
  O  O618  1  0.148151  -0.000000  0.421166  1
  O  O619  1  0.499880  0.101821  0.309806  1
  O  O620  1  0.601677  0.500023  0.309800  1
  O  O621  1  0.898103  0.601844  0.309792  1
  O  O622  1  0.148140  0.351818  0.421171  1
  O  O623  1  0.453484  0.648203  0.375830  1
  O  O624  1  0.898108  0.351854  0.466528  1
  O  O625  1  0.148217  0.499993  0.421152  1
  O  O626  1  0.148107  0.601833  0.466522  1
  O  O627  1  0.453515  0.398186  0.375820  1
  O  O628  1  0.898204  0.500010  0.309780  1
  O  O629  1  0.601762  0.398195  0.309785  1
  O  O630  1  0.601761  0.648185  0.375810  1
  O  O631  1  0.046393  0.351813  0.466510  1
  O  O632  1  0.351759  0.648178  0.421168  1
  O  O633  1  0.351670  0.500005  0.421177  1
  O  O634  1  0.046378  0.601814  0.466507  1
  O  O635  1  0.351786  0.398170  0.375804  1
  O  O636  1  0.462041  0.577022  0.335386  1
  O  O637  1  0.845911  0.577045  0.335374  1
  O  O638  1  0.462118  0.460823  0.335375  1
  O  O639  1  0.133821  0.577009  0.429877  1
  O  O640  1  0.249915  0.577027  0.429893  1
  O  O641  1  0.366159  0.460802  0.378122  1
  O  O642  1  0.037842  0.423001  0.506951  1
  O  O643  1  0.653952  0.423010  0.506962  1
  O  O644  1  0.037735  0.539225  0.506964  1
  O  O645  1  0.366060  0.422993  0.412452  1
  O  O646  1  0.249986  0.422971  0.412432  1
  O  O647  1  0.133722  0.539206  0.464210  1
  O  O648  1  0.505476  0.497217  0.338715  1
  O  O649  1  0.867254  0.635445  0.338720  1
  O  O650  1  0.867387  0.497236  0.338701  1
  O  O651  1  0.111816  0.385398  0.451319  1
  O  O652  1  0.867274  0.385446  0.451340  1
  O  O653  1  0.250007  0.497205  0.390995  1
  O  O654  1  0.111787  0.635409  0.452555  1
  O  O655  1  0.388068  0.497216  0.391013  1
  O  O656  1  0.994411  0.502803  0.503620  1
  O  O657  1  0.632585  0.364631  0.503616  1
  O  O658  1  0.632479  0.502820  0.503638  1
  O  O659  1  0.388100  0.614591  0.391016  1
  O  O660  1  0.632602  0.614611  0.390997  1
  O  O661  1  0.249871  0.502802  0.451335  1
  O  O662  1  0.388109  0.364591  0.389770  1
  O  O663  1  0.111836  0.502781  0.451313  1
  O  O664  1  0.493200  0.572848  0.350754  1
  O  O665  1  0.389000  0.433821  0.350728  1
  O  O666  1  0.145665  0.427165  0.429660  1
  O  O667  1  0.749885  0.427208  0.491605  1
  O  O668  1  0.111008  0.572832  0.412651  1
  O  O669  1  0.493273  0.433814  0.350740  1
  O  O670  1  0.749988  0.572841  0.350731  1
  O  O671  1  0.388864  0.427173  0.429680  1
  O  O672  1  0.006693  0.427163  0.491582  1
  O  O673  1  0.354235  0.572828  0.412673  1
  O  O674  1  0.110864  0.566215  0.491606  1
  O  O675  1  0.006611  0.566196  0.491590  1
  O  O676  1  0.500005  0.648199  0.421154  1
  O  O677  1  -0.000000  0.601851  0.309804  1
  O  O678  1  0.499862  0.601845  0.309811  1
  O  O679  1  -0.000000  0.398203  0.532531  1
  O  O680  1  0.499865  0.351830  0.421185  1
  O  O681  1  0.601669  0.000000  0.309800  1
  O  O682  1  0.148190  0.750005  0.466506  1
  O  O683  1  0.148079  0.851841  0.421184  1
  O  O684  1  0.601667  0.750016  0.375830  1
  O  O685  1  0.898092  0.851833  0.466532  1
  O  O686  1  0.453468  0.898199  0.375823  1
  O  O687  1  0.601747  0.898175  0.309783  1
  O  O688  1  0.898185  0.750003  0.466499  1
  O  O689  1  0.351641  0.750014  0.375848  1
  O  O690  1  0.046345  0.851821  0.466523  1
  O  O691  1  -0.000000  0.851834  0.421190  1
  O  O692  1  0.351724  0.898190  0.375812  1
  O  O693  1  0.462100  0.960811  0.335373  1
  O  O694  1  0.133806  0.827013  0.464190  1
  O  O695  1  0.249870  0.827048  0.412463  1
  O  O696  1  0.366136  0.710809  0.412447  1
  O  O697  1  0.462033  0.827022  0.412454  1
  O  O698  1  0.845902  0.827033  0.464200  1
  O  O699  1  0.462120  0.710810  0.412435  1
  O  O700  1  0.366114  0.960814  0.378124  1
  O  O701  1  0.037836  0.923002  0.506955  1
  O  O702  1  0.653946  0.922982  0.506960  1
  O  O703  1  0.366037  0.672998  0.378160  1
  O  O704  1  0.249963  0.672981  0.429888  1
  O  O705  1  0.133688  0.789216  0.429908  1
  O  O706  1  0.037824  0.672994  0.429875  1
  O  O707  1  0.653954  0.672998  0.378134  1
  O  O708  1  0.037725  0.789216  0.429911  1
  O  O709  1  0.366029  0.923001  0.412453  1
  O  O710  1  0.249920  0.923000  0.412443  1
  O  O711  1  0.505458  0.997203  0.338714  1
  O  O712  1  0.867393  0.997233  0.338706  1
  O  O713  1  0.249986  0.747211  0.451316  1
  O  O714  1  0.111743  0.885425  0.451334  1
  O  O715  1  0.388017  0.747241  0.389800  1
  O  O716  1  0.505460  0.747214  0.389781  1
  O  O717  1  0.867258  0.885428  0.451343  1
  O  O718  1  0.867379  0.747227  0.451305  1
  O  O719  1  0.249956  0.997222  0.391003  1
  O  O720  1  0.388027  0.997229  0.391015  1
  O  O721  1  0.632571  0.864609  0.503615  1
  O  O722  1  0.249852  0.752803  0.391037  1
  O  O723  1  0.111814  0.752787  0.452552  1
  O  O724  1  0.994391  0.752797  0.452556  1
  O  O725  1  0.632482  0.752813  0.391022  1
  O  O726  1  0.388055  0.864610  0.389776  1
  O  O727  1  0.749876  0.677196  0.350751  1
  O  O728  1  0.388953  0.933829  0.350731  1
  O  O729  1  0.110995  0.822846  0.491580  1
  O  O730  1  0.145591  0.927197  0.429676  1
  O  O731  1  0.493250  0.683820  0.383195  1
  O  O732  1  0.493179  0.822844  0.383207  1
  O  O733  1  0.749875  0.927178  0.491606  1
  O  O734  1  0.388989  0.683817  0.429661  1
  O  O735  1  0.145635  0.677177  0.459135  1
  O  O736  1  0.493239  0.933811  0.350740  1
  O  O737  1  0.388853  0.677181  0.350770  1
  O  O738  1  0.749973  0.822828  0.491579  1
  O  O739  1  0.388852  0.927180  0.429676  1
  O  O740  1  0.354195  0.822843  0.383207  1
  O  O741  1  0.006656  0.927169  0.491594  1
  O  O742  1  0.006670  0.677162  0.459122  1
  O  O743  1  0.006586  0.816193  0.459154  1
  O  O744  1  0.110858  0.816205  0.412688  1
  O  O745  1  0.499864  0.851838  0.421177  1
  O  O746  1  0.398104  0.101854  0.532555  1
  O  O747  1  0.648181  0.250045  0.689259  1
  O  O748  1  0.953493  0.148223  0.598577  1
  O  O749  1  0.101669  0.250032  0.598593  1
  O  O750  1  0.398176  0.000000  0.532539  1
  O  O751  1  -0.000000  0.148224  0.643911  1
  O  O752  1  0.851675  0.000000  0.643935  1
  O  O753  1  0.648100  0.101867  0.689290  1
  O  O754  1  0.398180  0.250029  0.689264  1
  O  O755  1  0.101744  0.148212  0.598566  1
  O  O756  1  0.851659  0.250038  0.598589  1
  O  O757  1  0.851742  0.148223  0.643918  1
  O  O758  1  0.546371  0.101847  0.689274  1
  O  O759  1  0.962033  0.077035  0.558139  1
  O  O760  1  0.345900  0.077049  0.558134  1
  O  O761  1  0.633787  0.327060  0.686946  1
  O  O762  1  0.749898  0.327059  0.635206  1
  O  O763  1  0.866137  0.210844  0.635193  1
  O  O764  1  0.962032  0.327046  0.635217  1
  O  O765  1  0.345900  0.327048  0.686961  1
  O  O766  1  0.962108  0.210839  0.635188  1
  O  O767  1  0.633817  0.077046  0.652644  1
  O  O768  1  0.749901  0.077063  0.652659  1
  O  O769  1  0.537748  0.039223  0.729721  1
  O  O770  1  0.866046  0.173028  0.600905  1
  O  O771  1  0.749941  0.173021  0.652643  1
  O  O772  1  0.633700  0.289243  0.652658  1
  O  O773  1  0.537815  0.173027  0.652641  1
  O  O774  1  0.153945  0.173004  0.600894  1
  O  O775  1  0.537730  0.289231  0.652665  1
  O  O776  1  0.633721  0.039237  0.686974  1
  O  O777  1  0.367276  0.135420  0.561480  1
  O  O778  1  0.749975  0.247256  0.674066  1
  O  O779  1  0.888046  0.247252  0.612540  1
  O  O780  1  0.005454  0.247247  0.612539  1
  O  O781  1  0.367374  0.247236  0.674069  1
  O  O782  1  0.611771  0.135447  0.675325  1
  O  O783  1  0.494393  0.002827  0.726380  1
  O  O784  1  0.132471  0.002801  0.726387  1
  O  O785  1  0.749861  0.252829  0.613784  1
  O  O786  1  0.888076  0.114634  0.613768  1
  O  O787  1  0.611787  0.252833  0.675311  1
  O  O788  1  0.494377  0.252836  0.675321  1
  O  O789  1  0.132579  0.114617  0.613754  1
  O  O790  1  0.132480  0.252808  0.613786  1
  O  O791  1  0.749876  0.002834  0.674096  1
  O  O792  1  0.611825  0.002814  0.674080  1
  O  O793  1  0.993197  0.072870  0.573504  1
  O  O794  1  0.249880  0.177202  0.573513  1
  O  O795  1  0.610988  0.322877  0.714333  1
  O  O796  1  0.993251  0.183852  0.605945  1
  O  O797  1  0.993194  0.322875  0.605968  1
  O  O798  1  0.888968  0.183856  0.652413  1
  O  O799  1  0.610992  0.072868  0.635421  1
  O  O800  1  0.645623  0.177218  0.681898  1
  O  O801  1  0.249965  0.072858  0.573490  1
  O  O802  1  0.888855  0.177196  0.573516  1
  O  O803  1  0.249972  0.322854  0.714341  1
  O  O804  1  0.854226  0.322861  0.605956  1
  O  O805  1  0.854224  0.072870  0.635428  1
  O  O806  1  0.506660  0.177201  0.681890  1
  O  O807  1  0.610883  0.066215  0.714367  1
  O  O808  1  0.506580  0.316239  0.681908  1
  O  O809  1  0.610864  0.316222  0.635439  1
  O  O810  1  0.506606  0.066225  0.714354  1
  O  O811  1  0.101674  -0.000000  0.532551  1
  O  O812  1  0.499986  0.148209  0.643918  1
  O  O813  1  0.648199  0.000000  0.643921  1
  O  O814  1  0.101646  0.500043  0.532555  1
  O  O815  1  0.398092  0.601866  0.532560  1
  O  O816  1  0.648092  0.351864  0.643932  1
  O  O817  1  0.953471  0.648231  0.598579  1
  O  O818  1  0.398085  0.351863  0.689289  1
  O  O819  1  0.000000  0.648191  0.643905  1
  O  O820  1  0.648195  0.500029  0.643919  1
  O  O821  1  0.648095  0.601864  0.689286  1
  O  O822  1  0.953496  0.398221  0.598580  1
  O  O823  1  0.398184  0.500035  0.532543  1
  O  O824  1  0.101748  0.398210  0.532542  1
  O  O825  1  0.101753  0.648195  0.598563  1
  O  O826  1  0.546342  0.351865  0.689274  1
  O  O827  1  0.851735  0.648215  0.643916  1
  O  O828  1  0.851663  0.500038  0.643934  1
  O  O829  1  0.546359  0.601845  0.689272  1
  O  O830  1  0.851760  0.398203  0.598566  1
  O  O831  1  0.962007  0.577053  0.558140  1
  O  O832  1  0.345895  0.577055  0.558138  1
  O  O833  1  0.962116  0.460826  0.558127  1
  O  O834  1  0.633811  0.577037  0.652641  1
  O  O835  1  0.749894  0.577059  0.652656  1
  O  O836  1  0.866153  0.460826  0.600877  1
  O  O837  1  0.866044  0.423030  0.635211  1
  O  O838  1  0.749958  0.423007  0.635198  1
  O  O839  1  0.633708  0.539238  0.686975  1
  O  O840  1  0.005439  0.497250  0.561471  1
  O  O841  1  0.367266  0.635429  0.561484  1
  O  O842  1  0.367372  0.497246  0.561463  1
  O  O843  1  0.611764  0.385449  0.674081  1
  O  O844  1  0.367267  0.385424  0.674096  1
  O  O845  1  0.749995  0.497232  0.613757  1
  O  O846  1  0.611769  0.635436  0.675321  1
  O  O847  1  0.888039  0.497252  0.613773  1
  O  O848  1  0.888056  0.614641  0.613768  1
  O  O849  1  0.132584  0.614601  0.613751  1
  O  O850  1  0.749866  0.502833  0.674096  1
  O  O851  1  0.888090  0.364623  0.612531  1
  O  O852  1  0.611811  0.502815  0.674081  1
  O  O853  1  0.993165  0.572887  0.573507  1
  O  O854  1  0.888989  0.433833  0.573484  1
  O  O855  1  0.645626  0.427211  0.652424  1
  O  O856  1  0.249865  0.427210  0.714362  1
  O  O857  1  0.611007  0.572857  0.635412  1
  O  O858  1  0.993255  0.433847  0.573498  1
  O  O859  1  0.249977  0.572846  0.573490  1
  O  O860  1  0.888866  0.427202  0.652436  1
  O  O861  1  0.506651  0.427215  0.714346  1
  O  O862  1  0.854218  0.572865  0.635425  1
  O  O863  1  0.610868  0.566231  0.714368  1
  O  O864  1  0.506592  0.566233  0.714357  1
  O  O865  1  0.499990  0.398220  0.532534  1
  O  O866  1  0.000000  0.351845  0.643938  1
  O  O867  1  -0.000000  0.898200  0.532535  1
  O  O868  1  0.648169  0.750040  0.689255  1
  O  O869  1  0.648081  0.851880  0.643930  1
  O  O870  1  0.101659  0.750025  0.598596  1
  O  O871  1  0.398105  0.851853  0.689276  1
  O  O872  1  0.953501  0.898222  0.598583  1
  O  O873  1  0.101769  0.898193  0.532541  1
  O  O874  1  0.398203  0.750022  0.689255  1
  O  O875  1  0.851655  0.750046  0.598589  1
  O  O876  1  0.546346  0.851859  0.689268  1
  O  O877  1  0.851763  0.898207  0.598570  1
  O  O878  1  0.962135  0.960818  0.558128  1
  O  O879  1  0.633791  0.827049  0.686941  1
  O  O880  1  0.749890  0.827065  0.635206  1
  O  O881  1  0.866127  0.710840  0.635194  1
  O  O882  1  0.962018  0.827036  0.635220  1
  O  O883  1  0.345907  0.827043  0.686954  1
  O  O884  1  0.962118  0.710814  0.635185  1
  O  O885  1  0.866155  0.960832  0.600881  1
  O  O886  1  0.537808  0.923022  0.729710  1
  O  O887  1  0.153954  0.922994  0.729716  1
  O  O888  1  0.866020  0.673045  0.600907  1
  O  O889  1  0.749934  0.673015  0.652639  1
  O  O890  1  0.633699  0.789251  0.652651  1
  O  O891  1  0.537840  0.673013  0.652631  1
  O  O892  1  0.153942  0.672993  0.600895  1
  O  O893  1  0.537747  0.789229  0.652652  1
  O  O894  1  0.866049  0.923031  0.635213  1
  O  O895  1  0.749963  0.923005  0.635199  1
  O  O896  1  0.005476  0.997230  0.561468  1
  O  O897  1  0.367358  0.997242  0.561460  1
  O  O898  1  0.749968  0.747243  0.674065  1
  O  O899  1  0.611761  0.885448  0.674079  1
  O  O900  1  0.888031  0.747256  0.612544  1
  O  O901  1  0.005453  0.747233  0.612539  1
  O  O902  1  0.367271  0.885421  0.674088  1
  O  O903  1  0.367385  0.747228  0.674065  1
  O  O904  1  0.749996  0.997240  0.613760  1
  O  O905  1  0.888047  0.997256  0.613776  1
  O  O906  1  0.132600  0.864603  0.726371  1
  O  O907  1  0.749849  0.752851  0.613780  1
  O  O908  1  0.611795  0.752826  0.675301  1
  O  O909  1  0.494409  0.752823  0.675306  1
  O  O910  1  0.132463  0.752799  0.613792  1
  O  O911  1  0.888091  0.864625  0.612533  1
  O  O912  1  0.249868  0.677204  0.573518  1
  O  O913  1  0.889000  0.933831  0.573488  1
  O  O914  1  0.610968  0.822868  0.714331  1
  O  O915  1  0.645622  0.927219  0.652425  1
  O  O916  1  0.993246  0.683843  0.605945  1
  O  O917  1  0.993191  0.822870  0.605970  1
  O  O918  1  0.249880  0.927200  0.714354  1
  O  O919  1  0.888975  0.683832  0.652409  1
  O  O920  1  0.645609  0.677217  0.681893  1
  O  O921  1  0.993268  0.933841  0.573500  1
  O  O922  1  0.888840  0.677212  0.573516  1
  O  O923  1  0.249988  0.822842  0.714337  1
  O  O924  1  0.888864  0.927193  0.652439  1
  O  O925  1  0.854231  0.822861  0.605956  1
  O  O926  1  0.506650  0.927206  0.714341  1
  O  O927  1  0.506670  0.677195  0.681882  1
  O  O928  1  0.506593  0.816235  0.681897  1
  O  O929  1  0.610859  0.816236  0.635432  1
  O  O930  1  0.499965  0.898210  0.532534  1
  O  O931  1  0.898091  0.101844  0.532555  1
  O  O932  1  0.148204  0.250002  0.689257  1
  O  O933  1  0.453525  0.148172  0.598577  1
  O  O934  1  0.601669  0.250010  0.598594  1
  O  O935  1  0.351653  0.000000  0.643929  1
  O  O936  1  0.148089  0.101841  0.689281  1
  O  O937  1  0.898190  0.250030  0.689255  1
  O  O938  1  0.601763  0.148179  0.598570  1
  O  O939  1  0.351706  0.249989  0.598587  1
  O  O940  1  0.351775  0.148166  0.643918  1
  O  O941  1  0.046338  0.101838  0.689272  1
  O  O942  1  0.462039  0.077009  0.558140  1
  O  O943  1  0.845909  0.077040  0.558134  1
  O  O944  1  0.133839  0.327003  0.686938  1
  O  O945  1  0.249945  0.327015  0.635201  1
  O  O946  1  0.366169  0.210788  0.635193  1
  O  O947  1  0.462033  0.327016  0.635217  1
  O  O948  1  0.845907  0.327062  0.686956  1
  O  O949  1  0.462119  0.210808  0.635193  1
  O  O950  1  0.133790  0.077024  0.652640  1
  O  O951  1  0.249890  0.077041  0.652651  1
  O  O952  1  0.037728  0.039220  0.729721  1
  O  O953  1  0.366076  0.172984  0.600905  1
  O  O954  1  0.249970  0.172977  0.652641  1
  O  O955  1  0.133737  0.289200  0.652651  1
  O  O956  1  0.037824  0.173015  0.652632  1
  O  O957  1  0.653957  0.172988  0.600895  1
  O  O958  1  0.037744  0.289228  0.652660  1
  O  O959  1  0.133687  0.039223  0.686971  1
  O  O960  1  0.867270  0.135426  0.561478  1
  O  O961  1  0.250010  0.247198  0.674065  1
  O  O962  1  0.388085  0.247203  0.612540  1
  O  O963  1  0.505471  0.247206  0.612538  1
  O  O964  1  0.867370  0.247260  0.674064  1
  O  O965  1  0.111762  0.135424  0.675317  1
  O  O966  1  0.994387  0.002809  0.726381  1
  O  O967  1  0.632486  0.002791  0.726390  1
  O  O968  1  0.249899  0.252790  0.613780  1
  O  O969  1  0.388102  0.114589  0.613768  1
  O  O970  1  0.111830  0.252787  0.675303  1
  O  O971  1  0.994404  0.252815  0.675309  1
  O  O972  1  0.632584  0.114616  0.613762  1
  O  O973  1  0.632478  0.252800  0.613788  1
  O  O974  1  0.249851  0.002808  0.674090  1
  O  O975  1  0.111778  0.002809  0.674080  1
  O  O976  1  0.493208  0.072824  0.573506  1
  O  O977  1  0.749876  0.177192  0.573515  1
  O  O978  1  0.111013  0.322841  0.714330  1
  O  O979  1  0.493280  0.183798  0.605947  1
  O  O980  1  0.493206  0.322836  0.605965  1
  O  O981  1  0.388996  0.183811  0.652415  1
  O  O982  1  0.110966  0.072863  0.635416  1
  O  O983  1  0.145627  0.177185  0.681893  1
  O  O984  1  0.749984  0.072833  0.573494  1
  O  O985  1  0.388889  0.177161  0.573516  1
  O  O986  1  0.749980  0.322858  0.714336  1
  O  O987  1  0.354271  0.322813  0.605949  1
  O  O988  1  0.354234  0.072824  0.635424  1
  O  O989  1  0.006656  0.177186  0.681882  1
  O  O990  1  0.110859  0.066210  0.714362  1
  O  O991  1  0.006616  0.316202  0.681901  1
  O  O992  1  0.110897  0.316201  0.635433  1
  O  O993  1  0.006576  0.066212  0.714354  1
  O  O994  1  0.000000  0.101835  0.532559  1
  O  O995  1  0.898193  0.000000  0.532543  1
  O  O996  1  0.148151  -0.000000  0.643921  1
  O  O997  1  0.499880  0.101821  0.532561  1
  O  O998  1  0.601677  0.500023  0.532556  1
  O  O999  1  0.898103  0.601844  0.532548  1
  O  O1000  1  0.148140  0.351818  0.643926  1
  O  O1001  1  0.453484  0.648203  0.598586  1
  O  O1002  1  0.898108  0.351854  0.689283  1
  O  O1003  1  0.148217  0.499993  0.643907  1
  O  O1004  1  0.148107  0.601833  0.689277  1
  O  O1005  1  0.453515  0.398186  0.598576  1
  O  O1006  1  0.898204  0.500010  0.532535  1
  O  O1007  1  0.601762  0.398195  0.532540  1
  O  O1008  1  0.601761  0.648185  0.598565  1
  O  O1009  1  0.046393  0.351813  0.689265  1
  O  O1010  1  0.351759  0.648178  0.643923  1
  O  O1011  1  0.351670  0.500005  0.643932  1
  O  O1012  1  0.046378  0.601814  0.689262  1
  O  O1013  1  0.351786  0.398170  0.598559  1
  O  O1014  1  0.462041  0.577022  0.558141  1
  O  O1015  1  0.845911  0.577045  0.558129  1
  O  O1016  1  0.462118  0.460823  0.558130  1
  O  O1017  1  0.133821  0.577009  0.652632  1
  O  O1018  1  0.249915  0.577027  0.652648  1
  O  O1019  1  0.366159  0.460802  0.600877  1
  O  O1020  1  0.366060  0.422993  0.635207  1
  O  O1021  1  0.249986  0.422971  0.635187  1
  O  O1022  1  0.133722  0.539206  0.686965  1
  O  O1023  1  0.505476  0.497217  0.561470  1
  O  O1024  1  0.867254  0.635445  0.561475  1
  O  O1025  1  0.867387  0.497236  0.561456  1
  O  O1026  1  0.111816  0.385398  0.674074  1
  O  O1027  1  0.867274  0.385446  0.674095  1
  O  O1028  1  0.250007  0.497205  0.613751  1
  O  O1029  1  0.111787  0.635409  0.675310  1
  O  O1030  1  0.388068  0.497216  0.613769  1
  O  O1031  1  0.388100  0.614591  0.613772  1
  O  O1032  1  0.632602  0.614611  0.613752  1
  O  O1033  1  0.249871  0.502802  0.674091  1
  O  O1034  1  0.388109  0.364591  0.612525  1
  O  O1035  1  0.111836  0.502781  0.674068  1
  O  O1036  1  0.493200  0.572848  0.573509  1
  O  O1037  1  0.389000  0.433821  0.573483  1
  O  O1038  1  0.145665  0.427165  0.652415  1
  O  O1039  1  0.749885  0.427208  0.714360  1
  O  O1040  1  0.111008  0.572832  0.635406  1
  O  O1041  1  0.493273  0.433814  0.573495  1
  O  O1042  1  0.749988  0.572841  0.573486  1
  O  O1043  1  0.388864  0.427173  0.652435  1
  O  O1044  1  0.006693  0.427163  0.714337  1
  O  O1045  1  0.354235  0.572828  0.635428  1
  O  O1046  1  0.110864  0.566215  0.714362  1
  O  O1047  1  0.006611  0.566196  0.714345  1
  O  O1048  1  0.500005  0.648199  0.643909  1
  O  O1049  1  -0.000000  0.601851  0.532560  1
  O  O1050  1  0.499862  0.601845  0.532566  1
  O  O1051  1  0.499865  0.351830  0.643940  1
  O  O1052  1  0.601669  0.000000  0.532555  1
  O  O1053  1  0.148190  0.750005  0.689261  1
  O  O1054  1  0.148079  0.851841  0.643939  1
  O  O1055  1  0.601667  0.750016  0.598585  1
  O  O1056  1  0.898092  0.851833  0.689287  1
  O  O1057  1  0.453468  0.898199  0.598579  1
  O  O1058  1  0.601747  0.898175  0.532539  1
  O  O1059  1  0.898185  0.750003  0.689255  1
  O  O1060  1  0.351641  0.750014  0.598603  1
  O  O1061  1  0.046345  0.851821  0.689278  1
  O  O1062  1  -0.000000  0.851834  0.643945  1
  O  O1063  1  0.351724  0.898190  0.598567  1
  O  O1064  1  0.462100  0.960811  0.558128  1
  O  O1065  1  0.133806  0.827013  0.686945  1
  O  O1066  1  0.249870  0.827048  0.635219  1
  O  O1067  1  0.366136  0.710809  0.635202  1
  O  O1068  1  0.462033  0.827022  0.635209  1
  O  O1069  1  0.845902  0.827033  0.686956  1
  O  O1070  1  0.462120  0.710810  0.635190  1
  O  O1071  1  0.366114  0.960814  0.600879  1
  O  O1072  1  0.037836  0.923002  0.729710  1
  O  O1073  1  0.653946  0.922982  0.729715  1
  O  O1074  1  0.366037  0.672998  0.600915  1
  O  O1075  1  0.249963  0.672981  0.652644  1
  O  O1076  1  0.133688  0.789216  0.652663  1
  O  O1077  1  0.037824  0.672994  0.652630  1
  O  O1078  1  0.653954  0.672998  0.600889  1
  O  O1079  1  0.037725  0.789216  0.652666  1
  O  O1080  1  0.366029  0.923001  0.635208  1
  O  O1081  1  0.249920  0.923000  0.635199  1
  O  O1082  1  0.505458  0.997203  0.561469  1
  O  O1083  1  0.867393  0.997233  0.561461  1
  O  O1084  1  0.249986  0.747211  0.674071  1
  O  O1085  1  0.111743  0.885425  0.674090  1
  O  O1086  1  0.388017  0.747241  0.612556  1
  O  O1087  1  0.505460  0.747214  0.612536  1
  O  O1088  1  0.867258  0.885428  0.674099  1
  O  O1089  1  0.867379  0.747227  0.674060  1
  O  O1090  1  0.249956  0.997222  0.613758  1
  O  O1091  1  0.388027  0.997229  0.613770  1
  O  O1092  1  0.632571  0.864609  0.726370  1
  O  O1093  1  0.249852  0.752803  0.613792  1
  O  O1094  1  0.111814  0.752787  0.675307  1
  O  O1095  1  0.994391  0.752797  0.675311  1
  O  O1096  1  0.632482  0.752813  0.613777  1
  O  O1097  1  0.388055  0.864610  0.612531  1
  O  O1098  1  0.749876  0.677196  0.573506  1
  O  O1099  1  0.388953  0.933829  0.573486  1
  O  O1100  1  0.110995  0.822846  0.714335  1
  O  O1101  1  0.145591  0.927197  0.652431  1
  O  O1102  1  0.493250  0.683820  0.605951  1
  O  O1103  1  0.493179  0.822844  0.605962  1
  O  O1104  1  0.749875  0.927178  0.714362  1
  O  O1105  1  0.388989  0.683817  0.652416  1
  O  O1106  1  0.145635  0.677177  0.681891  1
  O  O1107  1  0.493239  0.933811  0.573495  1
  O  O1108  1  0.388853  0.677181  0.573525  1
  O  O1109  1  0.749973  0.822828  0.714334  1
  O  O1110  1  0.388852  0.927180  0.652431  1
  O  O1111  1  0.354195  0.822843  0.605962  1
  O  O1112  1  0.006656  0.927169  0.714349  1
  O  O1113  1  0.006670  0.677162  0.681877  1
  O  O1114  1  0.006586  0.816193  0.681909  1
  O  O1115  1  0.110858  0.816205  0.635443  1
  O  O1116  1  0.499864  0.851838  0.643932  1
  O  O1117  1  0.398104  0.101854  0.755310  1
  O  O1118  1  0.398176  0.000000  0.755294  1
  O  O1119  1  0.101674  0.000000  0.755306  1
  O  O1120  1  0.000000  0.898200  0.755290  1
  O  O1121  1  0.101769  0.898193  0.755297  1
  O  O1122  1  0.499965  0.898210  0.755289  1
  O  O1123  1  0.898091  0.101844  0.755310  1
  O  O1124  1  -0.000000  0.101835  0.755314  1
  O  O1125  1  0.898193  0.000000  0.755298  1
  O  O1126  1  0.499880  0.101821  0.755317  1
  O  O1127  1  0.601669  0.000000  0.755311  1
  O  O1128  1  0.601747  0.898175  0.755294  1
  Si  Si1129  1  0.928134  0.124867  0.150643  1
  Si  Si1130  1  0.660566  0.053158  0.246208  1
  Si  Si1131  1  0.660552  0.303157  0.190441  1
  Si  Si1132  1  0.338496  0.125208  0.111172  1
  Si  Si1133  1  0.660661  0.286277  0.246173  1
  Si  Si1134  1  0.928174  0.196930  0.166778  1
  Si  Si1135  1  0.016724  0.286267  0.166799  1
  Si  Si1136  1  0.927888  0.196934  0.206387  1
  Si  Si1137  1  0.660684  0.036264  0.190425  1
  Si  Si1138  1  0.660990  0.125224  0.230058  1
  Si  Si1139  1  0.338564  0.036258  0.111159  1
  Si  Si1140  1  0.338571  0.286253  0.246181  1
  Si  Si1141  1  0.016796  0.196920  0.166772  1
  Si  Si1142  1  0.838815  0.286267  0.166790  1
  Si  Si1143  1  0.839282  0.196928  0.206388  1
  Si  Si1144  1  0.838823  0.036269  0.190437  1
  Si  Si1145  1  0.571722  0.125209  0.230044  1
  Si  Si1146  1  0.571969  0.053123  0.285675  1
  Si  Si1147  1  0.839175  0.213806  0.150655  1
  Si  Si1148  1  0.838854  0.124861  0.190429  1
  Si  Si1149  1  0.571664  0.303157  0.230053  1
  Si  Si1150  1  0.483121  0.213807  0.230039  1
  Si  Si1151  1  0.161350  0.124847  0.150629  1
  Si  Si1152  1  0.571953  0.303131  0.190444  1
  Si  Si1153  1  0.571694  0.053141  0.246194  1
  Si  Si1154  1  0.483054  0.053151  0.285671  1
  Si  Si1155  1  0.161281  0.213797  0.150653  1
  Si  Si1156  1  0.572051  0.124862  0.190427  1
  Si  Si1157  1  0.483034  0.303161  0.230062  1
  Si  Si1158  1  0.661023  0.213815  0.230039  1
  Si  Si1159  1  0.660556  0.553159  0.246207  1
  Si  Si1160  1  0.928135  0.374867  0.166791  1
  Si  Si1161  1  0.483043  0.553166  0.285675  1
  Si  Si1162  1  0.661036  0.463803  0.206399  1
  Si  Si1163  1  0.928106  0.624882  0.150646  1
  Si  Si1164  1  0.572077  0.624849  0.190416  1
  Si  Si1165  1  0.338486  0.625216  0.111177  1
  Si  Si1166  1  0.660984  0.375222  0.206400  1
  Si  Si1167  1  0.338485  0.375212  0.246204  1
  Si  Si1168  1  0.660684  0.536254  0.190420  1
  Si  Si1169  1  0.660983  0.625220  0.230054  1
  Si  Si1170  1  0.928178  0.446923  0.150637  1
  Si  Si1171  1  0.338569  0.536259  0.111162  1
  Si  Si1172  1  0.927801  0.375207  0.206411  1
  Si  Si1173  1  0.571701  0.375222  0.246187  1
  Si  Si1174  1  0.838815  0.536265  0.190434  1
  Si  Si1175  1  0.571718  0.625200  0.230041  1
  Si  Si1176  1  0.839305  0.446904  0.150624  1
  Si  Si1177  1  0.483124  0.463814  0.285661  1
  Si  Si1178  1  0.161358  0.374845  0.285659  1
  Si  Si1179  1  0.571954  0.553147  0.285679  1
  Si  Si1180  1  0.838846  0.624857  0.190426  1
  Si  Si1181  1  0.161355  0.624833  0.150627  1
  Si  Si1182  1  0.839178  0.463809  0.206410  1
  Si  Si1183  1  0.838868  0.374847  0.166778  1
  Si  Si1184  1  0.571679  0.553144  0.246195  1
  Si  Si1185  1  0.161269  0.463805  0.285670  1
  Si  Si1186  1  0.572056  0.374869  0.285654  1
  Si  Si1187  1  0.661014  0.713811  0.230033  1
  Si  Si1188  1  0.928138  0.874867  0.166794  1
  Si  Si1189  1  0.661042  0.963804  0.206399  1
  Si  Si1190  1  0.660540  0.803176  0.190437  1
  Si  Si1191  1  0.660655  0.786267  0.246170  1
  Si  Si1192  1  0.660979  0.875228  0.206398  1
  Si  Si1193  1  0.928160  0.696931  0.166780  1
  Si  Si1194  1  0.016716  0.786257  0.166801  1
  Si  Si1195  1  0.338496  0.875206  0.246195  1
  Si  Si1196  1  0.927904  0.696902  0.206381  1
  Si  Si1197  1  0.928183  0.946927  0.150641  1
  Si  Si1198  1  0.338585  0.786246  0.246175  1
  Si  Si1199  1  0.927783  0.875196  0.206415  1
  Si  Si1200  1  0.016801  0.696903  0.166771  1
  Si  Si1201  1  0.838811  0.786270  0.166791  1
  Si  Si1202  1  0.571703  0.875214  0.246182  1
  Si  Si1203  1  0.839278  0.696916  0.206388  1
  Si  Si1204  1  0.839306  0.946911  0.150629  1
  Si  Si1205  1  0.483121  0.963806  0.285657  1
  Si  Si1206  1  0.161370  0.874832  0.285658  1
  Si  Si1207  1  0.839161  0.713823  0.150655  1
  Si  Si1208  1  0.571671  0.803154  0.230044  1
  Si  Si1209  1  0.483147  0.713796  0.230028  1
  Si  Si1210  1  0.571958  0.803139  0.190434  1
  Si  Si1211  1  0.839188  0.963808  0.206411  1
  Si  Si1212  1  0.838874  0.874846  0.166780  1
  Si  Si1213  1  0.161281  0.963792  0.285667  1
  Si  Si1214  1  0.572037  0.874857  0.285653  1
  Si  Si1215  1  0.161272  0.713790  0.150657  1
  Si  Si1216  1  0.483057  0.803152  0.230048  1
  Si  Si1217  1  0.516728  0.036226  0.111172  1
  Si  Si1218  1  0.160697  0.286227  0.246170  1
  Si  Si1219  1  0.428203  0.196878  0.166778  1
  Si  Si1220  1  0.516730  0.286233  0.166798  1
  Si  Si1221  1  0.427899  0.196906  0.206392  1
  Si  Si1222  1  0.160644  0.036250  0.190423  1
  Si  Si1223  1  0.160981  0.125200  0.230050  1
  Si  Si1224  1  0.427809  0.125173  0.111177  1
  Si  Si1225  1  0.838574  0.286267  0.246175  1
  Si  Si1226  1  0.516815  0.196880  0.166775  1
  Si  Si1227  1  0.338866  0.286218  0.166787  1
  Si  Si1228  1  0.339319  0.196870  0.206388  1
  Si  Si1229  1  0.338812  0.036240  0.190430  1
  Si  Si1230  1  0.071707  0.125188  0.230038  1
  Si  Si1231  1  0.071944  0.053128  0.285675  1
  Si  Si1232  1  0.339212  0.213764  0.150655  1
  Si  Si1233  1  0.338880  0.124813  0.190429  1
  Si  Si1234  1  0.071704  0.303111  0.230045  1
  Si  Si1235  1  0.983135  0.213794  0.230028  1
  Si  Si1236  1  0.661367  0.124827  0.150632  1
  Si  Si1237  1  0.071961  0.303135  0.190442  1
  Si  Si1238  1  0.071652  0.053134  0.246194  1
  Si  Si1239  1  0.983037  0.053139  0.285670  1
  Si  Si1240  1  0.661280  0.213786  0.150656  1
  Si  Si1241  1  0.072049  0.124857  0.190418  1
  Si  Si1242  1  0.983060  0.303143  0.230055  1
  Si  Si1243  1  0.161048  0.213775  0.230035  1
  Si  Si1244  1  0.428162  0.124819  0.150643  1
  Si  Si1245  1  0.160591  0.303119  0.190435  1
  Si  Si1246  1  0.160542  0.053139  0.246202  1
  Si  Si1247  1  0.160563  0.553132  0.246199  1
  Si  Si1248  1  0.516735  0.536244  0.111172  1
  Si  Si1249  1  0.427901  0.446918  0.111155  1
  Si  Si1250  1  0.161034  0.375174  0.206393  1
  Si  Si1251  1  0.838501  0.375220  0.246200  1
  Si  Si1252  1  0.160693  0.536227  0.190412  1
  Si  Si1253  1  0.161000  0.625189  0.230045  1
  Si  Si1254  1  0.428193  0.446892  0.150634  1
  Si  Si1255  1  0.427796  0.625189  0.111181  1
  Si  Si1256  1  0.516813  0.446894  0.111160  1
  Si  Si1257  1  0.427797  0.375181  0.206411  1
  Si  Si1258  1  0.071756  0.375165  0.246177  1
  Si  Si1259  1  0.338832  0.536232  0.190431  1
  Si  Si1260  1  0.071735  0.625170  0.230031  1
  Si  Si1261  1  0.339315  0.446882  0.150621  1
  Si  Si1262  1  0.983150  0.463778  0.285653  1
  Si  Si1263  1  0.661363  0.374848  0.285658  1
  Si  Si1264  1  0.071942  0.553139  0.285675  1
  Si  Si1265  1  0.338873  0.624819  0.190433  1
  Si  Si1266  1  0.661371  0.624832  0.150625  1
  Si  Si1267  1  0.339185  0.463776  0.206407  1
  Si  Si1268  1  0.338898  0.374809  0.166769  1
  Si  Si1269  1  0.071696  0.553111  0.246184  1
  Si  Si1270  1  0.661287  0.463802  0.285671  1
  Si  Si1271  1  0.072076  0.374841  0.285649  1
  Si  Si1272  1  0.983057  0.553135  0.285664  1
  Si  Si1273  1  0.072065  0.624830  0.190413  1
  Si  Si1274  1  0.428138  0.624836  0.150650  1
  Si  Si1275  1  0.161066  0.463765  0.206386  1
  Si  Si1276  1  0.428156  0.374829  0.166786  1
  Si  Si1277  1  0.160998  0.963795  0.206400  1
  Si  Si1278  1  0.428115  0.874840  0.166788  1
  Si  Si1279  1  0.427875  0.946912  0.111154  1
  Si  Si1280  1  0.160673  0.786236  0.246176  1
  Si  Si1281  1  0.160960  0.875206  0.206409  1
  Si  Si1282  1  0.428158  0.696909  0.166789  1
  Si  Si1283  1  0.516723  0.786241  0.166792  1
  Si  Si1284  1  0.838492  0.875193  0.246201  1
  Si  Si1285  1  0.427910  0.696901  0.206388  1
  Si  Si1286  1  0.428147  0.946904  0.150637  1
  Si  Si1287  1  0.516795  0.946881  0.111157  1
  Si  Si1288  1  0.838571  0.786237  0.246174  1
  Si  Si1289  1  0.427795  0.875186  0.206404  1
  Si  Si1290  1  0.516808  0.696887  0.166773  1
  Si  Si1291  1  0.338791  0.786250  0.166804  1
  Si  Si1292  1  0.071709  0.875176  0.246189  1
  Si  Si1293  1  0.339296  0.696885  0.206394  1
  Si  Si1294  1  0.339267  0.946894  0.150625  1
  Si  Si1295  1  0.983135  0.963779  0.285660  1
  Si  Si1296  1  0.661355  0.874820  0.285656  1
  Si  Si1297  1  0.339164  0.713781  0.150667  1
  Si  Si1298  1  0.071663  0.803118  0.230055  1
  Si  Si1299  1  0.983129  0.713773  0.230028  1
  Si  Si1300  1  0.071940  0.803125  0.190448  1
  Si  Si1301  1  0.339164  0.963783  0.206406  1
  Si  Si1302  1  0.338831  0.874837  0.166779  1
  Si  Si1303  1  0.661279  0.963774  0.285671  1
  Si  Si1304  1  0.072075  0.874839  0.285652  1
  Si  Si1305  1  0.661280  0.713794  0.150647  1
  Si  Si1306  1  0.983041  0.803128  0.230060  1
  Si  Si1307  1  0.161041  0.713775  0.230037  1
  Si  Si1308  1  0.160542  0.803134  0.190448  1
  Si  Si1309  1  0.928134  0.124867  0.373399  1
  Si  Si1310  1  0.660566  0.053158  0.468964  1
  Si  Si1311  1  0.660552  0.303157  0.413197  1
  Si  Si1312  1  0.016733  0.036257  0.333924  1
  Si  Si1313  1  0.338496  0.125208  0.333927  1
  Si  Si1314  1  0.660661  0.286277  0.468929  1
  Si  Si1315  1  0.928174  0.196930  0.389533  1
  Si  Si1316  1  0.016724  0.286267  0.389554  1
  Si  Si1317  1  0.927888  0.196934  0.429142  1
  Si  Si1318  1  0.660684  0.036264  0.413180  1
  Si  Si1319  1  0.660990  0.125224  0.452813  1
  Si  Si1320  1  0.338564  0.036258  0.333914  1
  Si  Si1321  1  0.927793  0.125195  0.333931  1
  Si  Si1322  1  0.338571  0.286253  0.468936  1
  Si  Si1323  1  0.016796  0.196920  0.389527  1
  Si  Si1324  1  0.838815  0.286267  0.389546  1
  Si  Si1325  1  0.839282  0.196928  0.429144  1
  Si  Si1326  1  0.838823  0.036269  0.413192  1
  Si  Si1327  1  0.571722  0.125209  0.452800  1
  Si  Si1328  1  0.571969  0.053123  0.508431  1
  Si  Si1329  1  0.839175  0.213806  0.373410  1
  Si  Si1330  1  0.838854  0.124861  0.413184  1
  Si  Si1331  1  0.571664  0.303157  0.452808  1
  Si  Si1332  1  0.483121  0.213807  0.452794  1
  Si  Si1333  1  0.161350  0.124847  0.373384  1
  Si  Si1334  1  0.571953  0.303131  0.413199  1
  Si  Si1335  1  0.571694  0.053141  0.468949  1
  Si  Si1336  1  0.483054  0.053151  0.508426  1
  Si  Si1337  1  0.161281  0.213797  0.373408  1
  Si  Si1338  1  0.572051  0.124862  0.413182  1
  Si  Si1339  1  0.483034  0.303161  0.452818  1
  Si  Si1340  1  0.661023  0.213815  0.452794  1
  Si  Si1341  1  0.660556  0.553159  0.468962  1
  Si  Si1342  1  0.928135  0.374867  0.389546  1
  Si  Si1343  1  0.483043  0.553166  0.508430  1
  Si  Si1344  1  0.661036  0.463803  0.429154  1
  Si  Si1345  1  0.928106  0.624882  0.373401  1
  Si  Si1346  1  0.572077  0.624849  0.413171  1
  Si  Si1347  1  0.016699  0.536276  0.333927  1
  Si  Si1348  1  0.338486  0.625216  0.333932  1
  Si  Si1349  1  0.927908  0.446912  0.333906  1
  Si  Si1350  1  0.660984  0.375222  0.429155  1
  Si  Si1351  1  0.338485  0.375212  0.468959  1
  Si  Si1352  1  0.660684  0.536254  0.413176  1
  Si  Si1353  1  0.660983  0.625220  0.452809  1
  Si  Si1354  1  0.928178  0.446923  0.373392  1
  Si  Si1355  1  0.338569  0.536259  0.333917  1
  Si  Si1356  1  0.927773  0.625214  0.333931  1
  Si  Si1357  1  0.016797  0.446916  0.333915  1
  Si  Si1358  1  0.927801  0.375207  0.429166  1
  Si  Si1359  1  0.571701  0.375222  0.468942  1
  Si  Si1360  1  0.838815  0.536265  0.413189  1
  Si  Si1361  1  0.571718  0.625200  0.452796  1
  Si  Si1362  1  0.839305  0.446904  0.373379  1
  Si  Si1363  1  0.483124  0.463814  0.508416  1
  Si  Si1364  1  0.161358  0.374845  0.508414  1
  Si  Si1365  1  0.571954  0.553147  0.508435  1
  Si  Si1366  1  0.838846  0.624857  0.413182  1
  Si  Si1367  1  0.161355  0.624833  0.373382  1
  Si  Si1368  1  0.839178  0.463809  0.429166  1
  Si  Si1369  1  0.838868  0.374847  0.389533  1
  Si  Si1370  1  0.571679  0.553144  0.468950  1
  Si  Si1371  1  0.161269  0.463805  0.508425  1
  Si  Si1372  1  0.572056  0.374869  0.508409  1
  Si  Si1373  1  0.661014  0.713811  0.452788  1
  Si  Si1374  1  0.928138  0.874867  0.389549  1
  Si  Si1375  1  0.661042  0.963804  0.429154  1
  Si  Si1376  1  0.660540  0.803176  0.413192  1
  Si  Si1377  1  0.927920  0.946908  0.333909  1
  Si  Si1378  1  0.660655  0.786267  0.468925  1
  Si  Si1379  1  0.660979  0.875228  0.429154  1
  Si  Si1380  1  0.928160  0.696931  0.389535  1
  Si  Si1381  1  0.016716  0.786257  0.389556  1
  Si  Si1382  1  0.338496  0.875206  0.468950  1
  Si  Si1383  1  0.927904  0.696902  0.429137  1
  Si  Si1384  1  0.928183  0.946927  0.373396  1
  Si  Si1385  1  0.016821  0.946902  0.333915  1
  Si  Si1386  1  0.338585  0.786246  0.468931  1
  Si  Si1387  1  0.927783  0.875196  0.429171  1
  Si  Si1388  1  0.016801  0.696903  0.389526  1
  Si  Si1389  1  0.838811  0.786270  0.389546  1
  Si  Si1390  1  0.571703  0.875214  0.468937  1
  Si  Si1391  1  0.839278  0.696916  0.429143  1
  Si  Si1392  1  0.839306  0.946911  0.373384  1
  Si  Si1393  1  0.483121  0.963806  0.508412  1
  Si  Si1394  1  0.161370  0.874832  0.508413  1
  Si  Si1395  1  0.839161  0.713823  0.373410  1
  Si  Si1396  1  0.571671  0.803154  0.452799  1
  Si  Si1397  1  0.483147  0.713796  0.452783  1
  Si  Si1398  1  0.571958  0.803139  0.413190  1
  Si  Si1399  1  0.839188  0.963808  0.429167  1
  Si  Si1400  1  0.838874  0.874846  0.389535  1
  Si  Si1401  1  0.161281  0.963792  0.508422  1
  Si  Si1402  1  0.572037  0.874857  0.508408  1
  Si  Si1403  1  0.161272  0.713790  0.373412  1
  Si  Si1404  1  0.483057  0.803152  0.452803  1
  Si  Si1405  1  0.516728  0.036226  0.333927  1
  Si  Si1406  1  0.838496  0.125201  0.333926  1
  Si  Si1407  1  0.160697  0.286227  0.468925  1
  Si  Si1408  1  0.428203  0.196878  0.389533  1
  Si  Si1409  1  0.516730  0.286233  0.389553  1
  Si  Si1410  1  0.427899  0.196906  0.429147  1
  Si  Si1411  1  0.160644  0.036250  0.413178  1
  Si  Si1412  1  0.160981  0.125200  0.452805  1
  Si  Si1413  1  0.838582  0.036242  0.333916  1
  Si  Si1414  1  0.427809  0.125173  0.333932  1
  Si  Si1415  1  0.838574  0.286267  0.468930  1
  Si  Si1416  1  0.516815  0.196880  0.389530  1
  Si  Si1417  1  0.338866  0.286218  0.389542  1
  Si  Si1418  1  0.339319  0.196870  0.429143  1
  Si  Si1419  1  0.338812  0.036240  0.413185  1
  Si  Si1420  1  0.071707  0.125188  0.452793  1
  Si  Si1421  1  0.071944  0.053128  0.508430  1
  Si  Si1422  1  0.339212  0.213764  0.373410  1
  Si  Si1423  1  0.338880  0.124813  0.413184  1
  Si  Si1424  1  0.071704  0.303111  0.452800  1
  Si  Si1425  1  0.983135  0.213794  0.452783  1
  Si  Si1426  1  0.661367  0.124827  0.373388  1
  Si  Si1427  1  0.071961  0.303135  0.413197  1
  Si  Si1428  1  0.071652  0.053134  0.468949  1
  Si  Si1429  1  0.983037  0.053139  0.508425  1
  Si  Si1430  1  0.661280  0.213786  0.373411  1
  Si  Si1431  1  0.072049  0.124857  0.413173  1
  Si  Si1432  1  0.983060  0.303143  0.452810  1
  Si  Si1433  1  0.161048  0.213775  0.452790  1
  Si  Si1434  1  0.428162  0.124819  0.373399  1
  Si  Si1435  1  0.160591  0.303119  0.413191  1
  Si  Si1436  1  0.160542  0.053139  0.468958  1
  Si  Si1437  1  0.160563  0.553132  0.468954  1
  Si  Si1438  1  0.516735  0.536244  0.333928  1
  Si  Si1439  1  0.838494  0.625208  0.333921  1
  Si  Si1440  1  0.427901  0.446918  0.333910  1
  Si  Si1441  1  0.161034  0.375174  0.429148  1
  Si  Si1442  1  0.838501  0.375220  0.468955  1
  Si  Si1443  1  0.160693  0.536227  0.413167  1
  Si  Si1444  1  0.161000  0.625189  0.452800  1
  Si  Si1445  1  0.428193  0.446892  0.373389  1
  Si  Si1446  1  0.838587  0.536246  0.333909  1
  Si  Si1447  1  0.427796  0.625189  0.333936  1
  Si  Si1448  1  0.516813  0.446894  0.333915  1
  Si  Si1449  1  0.427797  0.375181  0.429166  1
  Si  Si1450  1  0.071756  0.375165  0.468933  1
  Si  Si1451  1  0.338832  0.536232  0.413187  1
  Si  Si1452  1  0.071735  0.625170  0.452786  1
  Si  Si1453  1  0.339315  0.446882  0.373377  1
  Si  Si1454  1  0.983150  0.463778  0.508409  1
  Si  Si1455  1  0.661363  0.374848  0.508413  1
  Si  Si1456  1  0.071942  0.553139  0.508431  1
  Si  Si1457  1  0.338873  0.624819  0.413188  1
  Si  Si1458  1  0.661371  0.624832  0.373380  1
  Si  Si1459  1  0.339185  0.463776  0.429163  1
  Si  Si1460  1  0.338898  0.374809  0.389524  1
  Si  Si1461  1  0.071696  0.553111  0.468939  1
  Si  Si1462  1  0.661287  0.463802  0.508426  1
  Si  Si1463  1  0.072076  0.374841  0.508405  1
  Si  Si1464  1  0.983057  0.553135  0.508419  1
  Si  Si1465  1  0.072065  0.624830  0.413168  1
  Si  Si1466  1  0.428138  0.624836  0.373405  1
  Si  Si1467  1  0.161066  0.463765  0.429141  1
  Si  Si1468  1  0.428156  0.374829  0.389541  1
  Si  Si1469  1  0.160998  0.963795  0.429155  1
  Si  Si1470  1  0.428115  0.874840  0.389544  1
  Si  Si1471  1  0.427875  0.946912  0.333909  1
  Si  Si1472  1  0.160673  0.786236  0.468931  1
  Si  Si1473  1  0.160960  0.875206  0.429165  1
  Si  Si1474  1  0.428158  0.696909  0.389544  1
  Si  Si1475  1  0.516723  0.786241  0.389547  1
  Si  Si1476  1  0.838492  0.875193  0.468956  1
  Si  Si1477  1  0.427910  0.696901  0.429143  1
  Si  Si1478  1  0.428147  0.946904  0.373392  1
  Si  Si1479  1  0.516795  0.946881  0.333913  1
  Si  Si1480  1  0.838571  0.786237  0.468929  1
  Si  Si1481  1  0.427795  0.875186  0.429159  1
  Si  Si1482  1  0.516808  0.696887  0.389528  1
  Si  Si1483  1  0.338791  0.786250  0.389559  1
  Si  Si1484  1  0.071709  0.875176  0.468944  1
  Si  Si1485  1  0.339296  0.696885  0.429150  1
  Si  Si1486  1  0.339267  0.946894  0.373380  1
  Si  Si1487  1  0.983135  0.963779  0.508415  1
  Si  Si1488  1  0.661355  0.874820  0.508411  1
  Si  Si1489  1  0.339164  0.713781  0.373422  1
  Si  Si1490  1  0.071663  0.803118  0.452811  1
  Si  Si1491  1  0.983129  0.713773  0.452783  1
  Si  Si1492  1  0.071940  0.803125  0.413203  1
  Si  Si1493  1  0.339164  0.963783  0.429161  1
  Si  Si1494  1  0.338831  0.874837  0.389535  1
  Si  Si1495  1  0.661279  0.963774  0.508426  1
  Si  Si1496  1  0.072075  0.874839  0.508407  1
  Si  Si1497  1  0.661280  0.713794  0.373402  1
  Si  Si1498  1  0.983041  0.803128  0.452816  1
  Si  Si1499  1  0.161041  0.713775  0.452792  1
  Si  Si1500  1  0.160542  0.803134  0.413203  1
  Si  Si1501  1  0.928134  0.124867  0.596154  1
  Si  Si1502  1  0.660566  0.053158  0.691719  1
  Si  Si1503  1  0.660552  0.303157  0.635952  1
  Si  Si1504  1  0.016733  0.036257  0.556679  1
  Si  Si1505  1  0.338496  0.125208  0.556683  1
  Si  Si1506  1  0.660661  0.286277  0.691684  1
  Si  Si1507  1  0.928174  0.196930  0.612288  1
  Si  Si1508  1  0.016724  0.286267  0.612309  1
  Si  Si1509  1  0.927888  0.196934  0.651897  1
  Si  Si1510  1  0.660684  0.036264  0.635935  1
  Si  Si1511  1  0.660990  0.125224  0.675568  1
  Si  Si1512  1  0.338564  0.036258  0.556669  1
  Si  Si1513  1  0.927793  0.125195  0.556687  1
  Si  Si1514  1  0.338571  0.286253  0.691691  1
  Si  Si1515  1  0.016796  0.196920  0.612283  1
  Si  Si1516  1  0.838815  0.286267  0.612301  1
  Si  Si1517  1  0.839282  0.196928  0.651899  1
  Si  Si1518  1  0.838823  0.036269  0.635947  1
  Si  Si1519  1  0.571722  0.125209  0.675555  1
  Si  Si1520  1  0.571969  0.053123  0.731186  1
  Si  Si1521  1  0.839175  0.213806  0.596166  1
  Si  Si1522  1  0.838854  0.124861  0.635939  1
  Si  Si1523  1  0.571664  0.303157  0.675563  1
  Si  Si1524  1  0.483121  0.213807  0.675549  1
  Si  Si1525  1  0.161350  0.124847  0.596139  1
  Si  Si1526  1  0.571953  0.303131  0.635955  1
  Si  Si1527  1  0.571694  0.053141  0.691705  1
  Si  Si1528  1  0.483054  0.053151  0.731181  1
  Si  Si1529  1  0.161281  0.213797  0.596164  1
  Si  Si1530  1  0.572051  0.124862  0.635937  1
  Si  Si1531  1  0.483034  0.303161  0.675573  1
  Si  Si1532  1  0.661023  0.213815  0.675549  1
  Si  Si1533  1  0.660556  0.553159  0.691718  1
  Si  Si1534  1  0.928135  0.374867  0.612302  1
  Si  Si1535  1  0.661036  0.463803  0.651909  1
  Si  Si1536  1  0.928106  0.624882  0.596156  1
  Si  Si1537  1  0.572077  0.624849  0.635926  1
  Si  Si1538  1  0.016699  0.536276  0.556682  1
  Si  Si1539  1  0.338486  0.625216  0.556687  1
  Si  Si1540  1  0.927908  0.446912  0.556661  1
  Si  Si1541  1  0.660984  0.375222  0.651910  1
  Si  Si1542  1  0.338485  0.375212  0.691714  1
  Si  Si1543  1  0.660684  0.536254  0.635931  1
  Si  Si1544  1  0.660983  0.625220  0.675564  1
  Si  Si1545  1  0.928178  0.446923  0.596147  1
  Si  Si1546  1  0.338569  0.536259  0.556672  1
  Si  Si1547  1  0.927773  0.625214  0.556686  1
  Si  Si1548  1  0.016797  0.446916  0.556670  1
  Si  Si1549  1  0.927801  0.375207  0.651921  1
  Si  Si1550  1  0.571701  0.375222  0.691697  1
  Si  Si1551  1  0.838815  0.536265  0.635944  1
  Si  Si1552  1  0.571718  0.625200  0.675551  1
  Si  Si1553  1  0.839305  0.446904  0.596134  1
  Si  Si1554  1  0.838846  0.624857  0.635937  1
  Si  Si1555  1  0.161355  0.624833  0.596138  1
  Si  Si1556  1  0.839178  0.463809  0.651921  1
  Si  Si1557  1  0.838868  0.374847  0.612289  1
  Si  Si1558  1  0.571679  0.553144  0.691705  1
  Si  Si1559  1  0.661014  0.713811  0.675544  1
  Si  Si1560  1  0.928138  0.874867  0.612304  1
  Si  Si1561  1  0.661042  0.963804  0.651910  1
  Si  Si1562  1  0.660540  0.803176  0.635947  1
  Si  Si1563  1  0.927920  0.946908  0.556664  1
  Si  Si1564  1  0.660655  0.786267  0.691680  1
  Si  Si1565  1  0.660979  0.875228  0.651909  1
  Si  Si1566  1  0.928160  0.696931  0.612290  1
  Si  Si1567  1  0.016716  0.786257  0.612311  1
  Si  Si1568  1  0.338496  0.875206  0.691706  1
  Si  Si1569  1  0.927904  0.696902  0.651892  1
  Si  Si1570  1  0.928183  0.946927  0.596151  1
  Si  Si1571  1  0.016821  0.946902  0.556670  1
  Si  Si1572  1  0.338585  0.786246  0.691686  1
  Si  Si1573  1  0.927783  0.875196  0.651926  1
  Si  Si1574  1  0.016801  0.696903  0.612281  1
  Si  Si1575  1  0.838811  0.786270  0.612301  1
  Si  Si1576  1  0.571703  0.875214  0.691692  1
  Si  Si1577  1  0.839278  0.696916  0.651898  1
  Si  Si1578  1  0.839306  0.946911  0.596139  1
  Si  Si1579  1  0.483121  0.963806  0.731168  1
  Si  Si1580  1  0.161370  0.874832  0.731169  1
  Si  Si1581  1  0.839161  0.713823  0.596165  1
  Si  Si1582  1  0.571671  0.803154  0.675554  1
  Si  Si1583  1  0.483147  0.713796  0.675538  1
  Si  Si1584  1  0.571958  0.803139  0.635945  1
  Si  Si1585  1  0.839188  0.963808  0.651922  1
  Si  Si1586  1  0.838874  0.874846  0.612290  1
  Si  Si1587  1  0.161281  0.963792  0.731178  1
  Si  Si1588  1  0.572037  0.874857  0.731163  1
  Si  Si1589  1  0.161272  0.713790  0.596167  1
  Si  Si1590  1  0.483057  0.803152  0.675558  1
  Si  Si1591  1  0.516728  0.036226  0.556682  1
  Si  Si1592  1  0.838496  0.125201  0.556681  1
  Si  Si1593  1  0.160697  0.286227  0.691680  1
  Si  Si1594  1  0.428203  0.196878  0.612289  1
  Si  Si1595  1  0.516730  0.286233  0.612308  1
  Si  Si1596  1  0.427899  0.196906  0.651902  1
  Si  Si1597  1  0.160644  0.036250  0.635933  1
  Si  Si1598  1  0.160981  0.125200  0.675560  1
  Si  Si1599  1  0.838582  0.036242  0.556672  1
  Si  Si1600  1  0.427809  0.125173  0.556687  1
  Si  Si1601  1  0.838574  0.286267  0.691686  1
  Si  Si1602  1  0.516815  0.196880  0.612286  1
  Si  Si1603  1  0.338866  0.286218  0.612297  1
  Si  Si1604  1  0.339319  0.196870  0.651898  1
  Si  Si1605  1  0.338812  0.036240  0.635940  1
  Si  Si1606  1  0.071707  0.125188  0.675549  1
  Si  Si1607  1  0.071944  0.053128  0.731185  1
  Si  Si1608  1  0.339212  0.213764  0.596165  1
  Si  Si1609  1  0.338880  0.124813  0.635939  1
  Si  Si1610  1  0.071704  0.303111  0.675555  1
  Si  Si1611  1  0.983135  0.213794  0.675539  1
  Si  Si1612  1  0.661367  0.124827  0.596143  1
  Si  Si1613  1  0.071961  0.303135  0.635952  1
  Si  Si1614  1  0.071652  0.053134  0.691704  1
  Si  Si1615  1  0.983037  0.053139  0.731180  1
  Si  Si1616  1  0.661280  0.213786  0.596166  1
  Si  Si1617  1  0.072049  0.124857  0.635928  1
  Si  Si1618  1  0.983060  0.303143  0.675565  1
  Si  Si1619  1  0.161048  0.213775  0.675546  1
  Si  Si1620  1  0.428162  0.124819  0.596154  1
  Si  Si1621  1  0.160591  0.303119  0.635946  1
  Si  Si1622  1  0.160542  0.053139  0.691713  1
  Si  Si1623  1  0.160563  0.553132  0.691710  1
  Si  Si1624  1  0.516735  0.536244  0.556683  1
  Si  Si1625  1  0.838494  0.625208  0.556676  1
  Si  Si1626  1  0.427901  0.446918  0.556665  1
  Si  Si1627  1  0.161034  0.375174  0.651903  1
  Si  Si1628  1  0.838501  0.375220  0.691710  1
  Si  Si1629  1  0.160693  0.536227  0.635922  1
  Si  Si1630  1  0.161000  0.625189  0.675555  1
  Si  Si1631  1  0.428193  0.446892  0.596144  1
  Si  Si1632  1  0.838587  0.536246  0.556664  1
  Si  Si1633  1  0.427796  0.625189  0.556691  1
  Si  Si1634  1  0.516813  0.446894  0.556670  1
  Si  Si1635  1  0.427797  0.375181  0.651921  1
  Si  Si1636  1  0.071756  0.375165  0.691688  1
  Si  Si1637  1  0.338832  0.536232  0.635942  1
  Si  Si1638  1  0.071735  0.625170  0.675541  1
  Si  Si1639  1  0.339315  0.446882  0.596132  1
  Si  Si1640  1  0.338873  0.624819  0.635943  1
  Si  Si1641  1  0.661371  0.624832  0.596136  1
  Si  Si1642  1  0.339185  0.463776  0.651918  1
  Si  Si1643  1  0.338898  0.374809  0.612280  1
  Si  Si1644  1  0.071696  0.553111  0.691694  1
  Si  Si1645  1  0.072065  0.624830  0.635924  1
  Si  Si1646  1  0.428138  0.624836  0.596161  1
  Si  Si1647  1  0.161066  0.463765  0.651896  1
  Si  Si1648  1  0.428156  0.374829  0.612296  1
  Si  Si1649  1  0.160998  0.963795  0.651910  1
  Si  Si1650  1  0.428115  0.874840  0.612299  1
  Si  Si1651  1  0.427875  0.946912  0.556664  1
  Si  Si1652  1  0.160673  0.786236  0.691686  1
  Si  Si1653  1  0.160960  0.875206  0.651920  1
  Si  Si1654  1  0.428158  0.696909  0.612299  1
  Si  Si1655  1  0.516723  0.786241  0.612302  1
  Si  Si1656  1  0.838492  0.875193  0.691712  1
  Si  Si1657  1  0.427910  0.696901  0.651898  1
  Si  Si1658  1  0.428147  0.946904  0.596147  1
  Si  Si1659  1  0.516795  0.946881  0.556668  1
  Si  Si1660  1  0.838571  0.786237  0.691684  1
  Si  Si1661  1  0.427795  0.875186  0.651914  1
  Si  Si1662  1  0.516808  0.696887  0.612284  1
  Si  Si1663  1  0.338791  0.786250  0.612314  1
  Si  Si1664  1  0.071709  0.875176  0.691700  1
  Si  Si1665  1  0.339296  0.696885  0.651905  1
  Si  Si1666  1  0.339267  0.946894  0.596136  1
  Si  Si1667  1  0.983135  0.963779  0.731170  1
  Si  Si1668  1  0.661355  0.874820  0.731166  1
  Si  Si1669  1  0.339164  0.713781  0.596177  1
  Si  Si1670  1  0.071663  0.803118  0.675566  1
  Si  Si1671  1  0.983129  0.713773  0.675538  1
  Si  Si1672  1  0.071940  0.803125  0.635959  1
  Si  Si1673  1  0.339164  0.963783  0.651916  1
  Si  Si1674  1  0.338831  0.874837  0.612290  1
  Si  Si1675  1  0.661279  0.963774  0.731181  1
  Si  Si1676  1  0.072075  0.874839  0.731162  1
  Si  Si1677  1  0.661280  0.713794  0.596157  1
  Si  Si1678  1  0.983041  0.803128  0.675571  1
  Si  Si1679  1  0.161041  0.713775  0.675548  1
  Si  Si1680  1  0.160542  0.803134  0.635958  1
  H  H1681  1  0.398104  0.101854  0.078851  1
  H  H1682  1  0.398176  0.000000  0.078836  1
  H  H1683  1  0.993197  0.072870  0.119801  1
  H  H1684  1  0.888855  0.177196  0.119812  1
  H  H1685  1  0.398092  0.601866  0.078856  1
  H  H1686  1  0.398184  0.500035  0.078839  1
  H  H1687  1  0.993165  0.572887  0.119803  1
  H  H1688  1  0.888989  0.433833  0.119781  1
  H  H1689  1  0.993255  0.433847  0.119794  1
  H  H1690  1  0.499990  0.398220  0.078831  1
  H  H1691  1  0.889000  0.933831  0.119784  1
  H  H1692  1  0.993268  0.933841  0.119796  1
  H  H1693  1  0.888840  0.677212  0.119812  1
  H  H1694  1  0.499965  0.898210  0.078830  1
  H  H1695  1  0.749876  0.177192  0.119811  1
  H  H1696  1  0.749984  0.072833  0.119791  1
  H  H1697  1  0.499880  0.101821  0.078858  1
  H  H1698  1  0.601677  0.500023  0.078852  1
  H  H1699  1  0.601762  0.398195  0.078836  1
  H  H1700  1  0.749988  0.572841  0.119782  1
  H  H1701  1  0.499862  0.601845  0.078863  1
  H  H1702  1  0.601669  0.000000  0.078852  1
  H  H1703  1  0.601747  0.898175  0.078835  1
  H  H1704  1  0.749876  0.677196  0.119802  1
  H  H1705  1  0.610988  0.322877  0.722526  1
  H  H1706  1  0.249972  0.322854  0.722534  1
  H  H1707  1  0.249865  0.427210  0.722555  1
  H  H1708  1  0.506651  0.427215  0.722539  1
  H  H1709  1  0.610868  0.566231  0.722561  1
  H  H1710  1  0.506592  0.566233  0.722551  1
  H  H1711  1  0.111013  0.322841  0.722524  1
  H  H1712  1  0.749980  0.322858  0.722529  1
  H  H1713  1  0.749885  0.427208  0.722553  1
  H  H1714  1  0.006693  0.427163  0.722530  1
  H  H1715  1  0.110864  0.566215  0.722555  1
  H  H1716  1  0.006611  0.566196  0.722538  1
  H  H1717  1  0.398104  0.101854  0.763503  1
  H  H1718  1  0.398176  0.000000  0.763488  1
  H  H1719  1  0.101674  0.000000  0.763499  1
  H  H1720  1  -0.000000  0.898200  0.763483  1
  H  H1721  1  0.101769  0.898193  0.763490  1
  H  H1722  1  0.499965  0.898210  0.763482  1
  H  H1723  1  0.898091  0.101844  0.763503  1
  H  H1724  1  -0.000000  0.101835  0.763508  1
  H  H1725  1  0.898193  0.000000  0.763491  1
  H  H1726  1  0.499880  0.101821  0.763510  1
  H  H1727  1  0.601669  0.000000  0.763504  1
  H  H1728  1  0.601747  0.898175  0.763487  1
