# generated using pymatgen
data_Si15H2O31
_symmetry_space_group_name_H-M   'P 1'
_cell_length_a   34.60850121
_cell_length_b   34.61039952
_cell_length_c   85.37813715
_cell_angle_alpha   90.00000000
_cell_angle_beta   45.00674678
_cell_angle_gamma   59.99402408
_symmetry_Int_Tables_number   1
_chemical_formula_structural   Si15H2O31
_chemical_formula_sum   'Si360 H48 O744'
_cell_volume   51136.3705894
_cell_formula_units_Z   24
loop_
 _symmetry_equiv_pos_site_id
 _symmetry_equiv_pos_as_xyz
  1  'x, y, z'
loop_
 _atom_site_type_symbol
 _atom_site_label
 _atom_site_symmetry_multiplicity
 _atom_site_fract_x
 _atom_site_fract_y
 _atom_site_fract_z
 _atom_site_occupancy
  O  O1  1  0.398104  0.101854  0.111991  1
  O  O2  1  0.648181  0.250045  0.313606  1
  O  O3  1  0.953493  0.148223  0.196935  1
  O  O4  1  0.101669  0.250032  0.196955  1
  O  O5  1  0.398176  0.000000  0.111971  1
  O  O6  1  -0.000000  0.148224  0.255261  1
  O  O7  1  0.851675  -0.000000  0.255293  1
  O  O8  1  0.648100  0.101867  0.313646  1
  O  O9  1  0.398180  0.250029  0.313613  1
  O  O10  1  0.101744  0.148212  0.196921  1
  O  O11  1  0.851659  0.250038  0.196951  1
  O  O12  1  0.851742  0.148223  0.255270  1
  O  O13  1  0.546371  0.101847  0.313625  1
  O  O14  1  0.345900  0.077049  0.144901  1
  O  O15  1  0.633787  0.327060  0.310630  1
  O  O16  1  0.749898  0.327059  0.244062  1
  O  O17  1  0.866137  0.210844  0.244045  1
  O  O18  1  0.962032  0.327046  0.244076  1
  O  O19  1  0.345900  0.327048  0.310649  1
  O  O20  1  0.962108  0.210839  0.244039  1
  O  O21  1  0.633817  0.077046  0.266497  1
  O  O22  1  0.749901  0.077063  0.266517  1
  O  O23  1  0.537748  0.039223  0.365664  1
  O  O24  1  0.866046  0.173028  0.199930  1
  O  O25  1  0.749941  0.173021  0.266495  1
  O  O26  1  0.633700  0.289243  0.266515  1
  O  O27  1  0.537815  0.173027  0.266494  1
  O  O28  1  0.153945  0.173004  0.199916  1
  O  O29  1  0.537730  0.289231  0.266525  1
  O  O30  1  0.633721  0.039237  0.310667  1
  O  O31  1  0.367276  0.135420  0.149205  1
  O  O32  1  0.749975  0.247256  0.294058  1
  O  O33  1  0.888046  0.247252  0.214900  1
  O  O34  1  0.005454  0.247247  0.214898  1
  O  O35  1  0.367374  0.247236  0.294063  1
  O  O36  1  0.611771  0.135447  0.295679  1
  O  O37  1  0.494393  0.002827  0.361366  1
  O  O38  1  0.132471  0.002801  0.361375  1
  O  O39  1  0.749861  0.252829  0.216500  1
  O  O40  1  0.888076  0.114634  0.216480  1
  O  O41  1  0.611787  0.252833  0.295661  1
  O  O42  1  0.494377  0.252836  0.295673  1
  O  O43  1  0.132579  0.114617  0.216461  1
  O  O44  1  0.132480  0.252808  0.216502  1
  O  O45  1  0.749876  0.002834  0.294098  1
  O  O46  1  0.611825  0.002814  0.294077  1
  O  O47  1  0.993197  0.072870  0.164676  1
  O  O48  1  0.249880  0.177202  0.164688  1
  O  O49  1  0.610988  0.322877  0.345866  1
  O  O50  1  0.993251  0.183852  0.206415  1
  O  O51  1  0.993194  0.322875  0.206444  1
  O  O52  1  0.888968  0.183856  0.266201  1
  O  O53  1  0.610992  0.072868  0.244339  1
  O  O54  1  0.645623  0.177218  0.304135  1
  O  O55  1  0.249965  0.072858  0.164658  1
  O  O56  1  0.888855  0.177196  0.164691  1
  O  O57  1  0.249972  0.322854  0.345876  1
  O  O58  1  0.854226  0.322861  0.206428  1
  O  O59  1  0.854224  0.072870  0.244348  1
  O  O60  1  0.506660  0.177201  0.304125  1
  O  O61  1  0.610883  0.066215  0.345910  1
  O  O62  1  0.506580  0.316239  0.304148  1
  O  O63  1  0.610864  0.316222  0.244361  1
  O  O64  1  0.506606  0.066225  0.345894  1
  O  O65  1  0.499986  0.148209  0.255270  1
  O  O66  1  0.648199  -0.000000  0.255275  1
  O  O67  1  0.398092  0.601866  0.111997  1
  O  O68  1  0.648092  0.351864  0.255289  1
  O  O69  1  0.953471  0.648231  0.196938  1
  O  O70  1  0.398085  0.351863  0.313644  1
  O  O71  1  -0.000000  0.648191  0.255254  1
  O  O72  1  0.648195  0.500029  0.255271  1
  O  O73  1  0.648095  0.601864  0.313641  1
  O  O74  1  0.953496  0.398221  0.196939  1
  O  O75  1  0.398184  0.500035  0.111975  1
  O  O76  1  0.101753  0.648195  0.196917  1
  O  O77  1  0.546342  0.351865  0.313626  1
  O  O78  1  0.851735  0.648215  0.255268  1
  O  O79  1  0.851663  0.500038  0.255291  1
  O  O80  1  0.546359  0.601845  0.313623  1
  O  O81  1  0.851760  0.398203  0.196921  1
  O  O82  1  0.345895  0.577055  0.144907  1
  O  O83  1  0.633811  0.577037  0.266493  1
  O  O84  1  0.749894  0.577059  0.266512  1
  O  O85  1  0.866153  0.460826  0.199894  1
  O  O86  1  0.537818  0.423033  0.365652  1
  O  O87  1  0.153946  0.423005  0.365657  1
  O  O88  1  0.537736  0.539241  0.365670  1
  O  O89  1  0.866044  0.423030  0.244069  1
  O  O90  1  0.749958  0.423007  0.244051  1
  O  O91  1  0.633708  0.539238  0.310667  1
  O  O92  1  0.367266  0.635429  0.149211  1
  O  O93  1  0.367372  0.497246  0.149184  1
  O  O94  1  0.611764  0.385449  0.294079  1
  O  O95  1  0.367267  0.385424  0.294097  1
  O  O96  1  0.749995  0.497232  0.216465  1
  O  O97  1  0.611769  0.635436  0.295673  1
  O  O98  1  0.888039  0.497252  0.216486  1
  O  O99  1  0.494386  0.502840  0.361372  1
  O  O100  1  0.132594  0.364612  0.361353  1
  O  O101  1  0.132467  0.502815  0.361378  1
  O  O102  1  0.888056  0.614641  0.216480  1
  O  O103  1  0.132584  0.614601  0.216458  1
  O  O104  1  0.749866  0.502833  0.294097  1
  O  O105  1  0.888090  0.364623  0.214888  1
  O  O106  1  0.611811  0.502815  0.294078  1
  O  O107  1  0.993165  0.572887  0.164680  1
  O  O108  1  0.888989  0.433833  0.164651  1
  O  O109  1  0.645626  0.427211  0.266215  1
  O  O110  1  0.249865  0.427210  0.345903  1
  O  O111  1  0.611007  0.572857  0.244327  1
  O  O112  1  0.993255  0.433847  0.164668  1
  O  O113  1  0.249977  0.572846  0.164658  1
  O  O114  1  0.888866  0.427202  0.266229  1
  O  O115  1  0.506651  0.427215  0.345882  1
  O  O116  1  0.854218  0.572865  0.244343  1
  O  O117  1  0.610868  0.566231  0.345911  1
  O  O118  1  0.506592  0.566233  0.345897  1
  O  O119  1  0.499990  0.398220  0.111965  1
  O  O120  1  -0.000000  0.351845  0.255297  1
  O  O121  1  0.648169  0.750040  0.313601  1
  O  O122  1  0.648081  0.851880  0.255286  1
  O  O123  1  0.101659  0.750025  0.196960  1
  O  O124  1  0.398105  0.851853  0.313628  1
  O  O125  1  0.953501  0.898222  0.196942  1
  O  O126  1  0.398203  0.750022  0.313601  1
  O  O127  1  0.851655  0.750046  0.196950  1
  O  O128  1  0.546346  0.851859  0.313617  1
  O  O129  1  0.851763  0.898207  0.196925  1
  O  O130  1  0.633791  0.827049  0.310623  1
  O  O131  1  0.749890  0.827065  0.244061  1
  O  O132  1  0.866127  0.710840  0.244047  1
  O  O133  1  0.962018  0.827036  0.244080  1
  O  O134  1  0.345907  0.827043  0.310641  1
  O  O135  1  0.962118  0.710814  0.244035  1
  O  O136  1  0.866155  0.960832  0.199900  1
  O  O137  1  0.537808  0.923022  0.365650  1
  O  O138  1  0.153954  0.922994  0.365657  1
  O  O139  1  0.866020  0.673045  0.199933  1
  O  O140  1  0.749934  0.673015  0.266491  1
  O  O141  1  0.633699  0.789251  0.266506  1
  O  O142  1  0.537840  0.673013  0.266480  1
  O  O143  1  0.153942  0.672993  0.199917  1
  O  O144  1  0.537747  0.789229  0.266508  1
  O  O145  1  0.866049  0.923031  0.244071  1
  O  O146  1  0.749963  0.923005  0.244052  1
  O  O147  1  0.367358  0.997242  0.149180  1
  O  O148  1  0.749968  0.747243  0.294058  1
  O  O149  1  0.611761  0.885448  0.294075  1
  O  O150  1  0.888031  0.747256  0.214904  1
  O  O151  1  0.005453  0.747233  0.214898  1
  O  O152  1  0.367271  0.885421  0.294087  1
  O  O153  1  0.367385  0.747228  0.294058  1
  O  O154  1  0.749996  0.997240  0.216470  1
  O  O155  1  0.888047  0.997256  0.216490  1
  O  O156  1  0.132600  0.864603  0.361355  1
  O  O157  1  0.749849  0.752851  0.216496  1
  O  O158  1  0.611795  0.752826  0.295648  1
  O  O159  1  0.494409  0.752823  0.295654  1
  O  O160  1  0.132463  0.752799  0.216510  1
  O  O161  1  0.888091  0.864625  0.214891  1
  O  O162  1  0.249868  0.677204  0.164695  1
  O  O163  1  0.889000  0.933831  0.164655  1
  O  O164  1  0.610968  0.822868  0.345864  1
  O  O165  1  0.645622  0.927219  0.266216  1
  O  O166  1  0.993246  0.683843  0.206415  1
  O  O167  1  0.993191  0.822870  0.206447  1
  O  O168  1  0.249880  0.927200  0.345894  1
  O  O169  1  0.888975  0.683832  0.266195  1
  O  O170  1  0.645609  0.677217  0.304129  1
  O  O171  1  0.993268  0.933841  0.164671  1
  O  O172  1  0.888840  0.677212  0.164691  1
  O  O173  1  0.249988  0.822842  0.345872  1
  O  O174  1  0.888864  0.927193  0.266234  1
  O  O175  1  0.854231  0.822861  0.206429  1
  O  O176  1  0.506650  0.927206  0.345877  1
  O  O177  1  0.506670  0.677195  0.304115  1
  O  O178  1  0.506593  0.816235  0.304134  1
  O  O179  1  0.610859  0.816236  0.244352  1
  O  O180  1  0.499965  0.898210  0.111964  1
  O  O181  1  0.148204  0.250002  0.313604  1
  O  O182  1  0.453525  0.148172  0.196934  1
  O  O183  1  0.601669  0.250010  0.196957  1
  O  O184  1  0.351653  0.000000  0.255284  1
  O  O185  1  0.148089  0.101841  0.313635  1
  O  O186  1  0.898190  0.250030  0.313601  1
  O  O187  1  0.601763  0.148179  0.196925  1
  O  O188  1  0.351706  0.249989  0.196948  1
  O  O189  1  0.351775  0.148166  0.255270  1
  O  O190  1  0.046338  0.101838  0.313622  1
  O  O191  1  0.462039  0.077009  0.144909  1
  O  O192  1  0.133839  0.327003  0.310620  1
  O  O193  1  0.249945  0.327015  0.244056  1
  O  O194  1  0.366169  0.210788  0.244045  1
  O  O195  1  0.462033  0.327016  0.244075  1
  O  O196  1  0.845907  0.327062  0.310643  1
  O  O197  1  0.462119  0.210808  0.244045  1
  O  O198  1  0.133790  0.077024  0.266492  1
  O  O199  1  0.249890  0.077041  0.266507  1
  O  O200  1  0.037728  0.039220  0.365664  1
  O  O201  1  0.366076  0.172984  0.199930  1
  O  O202  1  0.249970  0.172977  0.266494  1
  O  O203  1  0.133737  0.289200  0.266506  1
  O  O204  1  0.037824  0.173015  0.266481  1
  O  O205  1  0.653957  0.172988  0.199917  1
  O  O206  1  0.037744  0.289228  0.266518  1
  O  O207  1  0.133687  0.039223  0.310663  1
  O  O208  1  0.250010  0.247198  0.294057  1
  O  O209  1  0.388085  0.247203  0.214899  1
  O  O210  1  0.505471  0.247206  0.214897  1
  O  O211  1  0.867370  0.247260  0.294056  1
  O  O212  1  0.111762  0.135424  0.295669  1
  O  O213  1  0.994387  0.002809  0.361367  1
  O  O214  1  0.632486  0.002791  0.361378  1
  O  O215  1  0.249899  0.252790  0.216495  1
  O  O216  1  0.388102  0.114589  0.216480  1
  O  O217  1  0.111830  0.252787  0.295650  1
  O  O218  1  0.994404  0.252815  0.295658  1
  O  O219  1  0.632584  0.114616  0.216472  1
  O  O220  1  0.632478  0.252800  0.216505  1
  O  O221  1  0.249851  0.002808  0.294090  1
  O  O222  1  0.111778  0.002809  0.294077  1
  O  O223  1  0.493208  0.072824  0.164679  1
  O  O224  1  0.749876  0.177192  0.164690  1
  O  O225  1  0.111013  0.322841  0.345863  1
  O  O226  1  0.493280  0.183798  0.206417  1
  O  O227  1  0.493206  0.322836  0.206440  1
  O  O228  1  0.388996  0.183811  0.266203  1
  O  O229  1  0.110966  0.072863  0.244332  1
  O  O230  1  0.145627  0.177185  0.304128  1
  O  O231  1  0.749984  0.072833  0.164664  1
  O  O232  1  0.388889  0.177161  0.164691  1
  O  O233  1  0.749980  0.322858  0.345870  1
  O  O234  1  0.354271  0.322813  0.206419  1
  O  O235  1  0.354234  0.072824  0.244342  1
  O  O236  1  0.006656  0.177186  0.304114  1
  O  O237  1  0.110859  0.066210  0.345904  1
  O  O238  1  0.006616  0.316202  0.304139  1
  O  O239  1  0.110897  0.316201  0.244354  1
  O  O240  1  0.006576  0.066212  0.345893  1
  O  O241  1  0.148151  -0.000000  0.255274  1
  O  O242  1  0.499880  0.101821  0.112000  1
  O  O243  1  0.601677  0.500023  0.111992  1
  O  O244  1  0.148140  0.351818  0.255280  1
  O  O245  1  0.453484  0.648203  0.196946  1
  O  O246  1  0.898108  0.351854  0.313637  1
  O  O247  1  0.148217  0.499993  0.255257  1
  O  O248  1  0.148107  0.601833  0.313630  1
  O  O249  1  0.453515  0.398186  0.196933  1
  O  O250  1  0.601762  0.398195  0.111972  1
  O  O251  1  0.601761  0.648185  0.196919  1
  O  O252  1  0.046393  0.351813  0.313614  1
  O  O253  1  0.351759  0.648178  0.255277  1
  O  O254  1  0.351670  0.500005  0.255288  1
  O  O255  1  0.046378  0.601814  0.313610  1
  O  O256  1  0.351786  0.398170  0.196911  1
  O  O257  1  0.462041  0.577022  0.144911  1
  O  O258  1  0.462118  0.460823  0.144896  1
  O  O259  1  0.133821  0.577009  0.266482  1
  O  O260  1  0.249915  0.577027  0.266503  1
  O  O261  1  0.366159  0.460802  0.199894  1
  O  O262  1  0.037842  0.423001  0.365645  1
  O  O263  1  0.653952  0.423010  0.365659  1
  O  O264  1  0.037735  0.539225  0.365662  1
  O  O265  1  0.366060  0.422993  0.244063  1
  O  O266  1  0.249986  0.422971  0.244037  1
  O  O267  1  0.133722  0.539206  0.310654  1
  O  O268  1  0.505476  0.497217  0.149193  1
  O  O269  1  0.111816  0.385398  0.294069  1
  O  O270  1  0.867274  0.385446  0.294097  1
  O  O271  1  0.250007  0.497205  0.216457  1
  O  O272  1  0.111787  0.635409  0.295660  1
  O  O273  1  0.388068  0.497216  0.216480  1
  O  O274  1  0.994411  0.502803  0.361359  1
  O  O275  1  0.632585  0.364631  0.361355  1
  O  O276  1  0.632479  0.502820  0.361382  1
  O  O277  1  0.388100  0.614591  0.216484  1
  O  O278  1  0.632602  0.614611  0.216459  1
  O  O279  1  0.249871  0.502802  0.294090  1
  O  O280  1  0.388109  0.364591  0.214880  1
  O  O281  1  0.111836  0.502781  0.294062  1
  O  O282  1  0.493200  0.572848  0.164683  1
  O  O283  1  0.389000  0.433821  0.164649  1
  O  O284  1  0.145665  0.427165  0.266203  1
  O  O285  1  0.749885  0.427208  0.345901  1
  O  O286  1  0.111008  0.572832  0.244319  1
  O  O287  1  0.493273  0.433814  0.164664  1
  O  O288  1  0.749988  0.572841  0.164653  1
  O  O289  1  0.388864  0.427173  0.266229  1
  O  O290  1  0.006693  0.427163  0.345871  1
  O  O291  1  0.354235  0.572828  0.244348  1
  O  O292  1  0.110864  0.566215  0.345903  1
  O  O293  1  0.006611  0.566196  0.345881  1
  O  O294  1  0.500005  0.648199  0.255259  1
  O  O295  1  0.499862  0.601845  0.112006  1
  O  O296  1  -0.000000  0.398203  0.398557  1
  O  O297  1  0.499865  0.351830  0.255298  1
  O  O298  1  0.601669  0.000000  0.111992  1
  O  O299  1  0.148190  0.750005  0.313609  1
  O  O300  1  0.148079  0.851841  0.255298  1
  O  O301  1  0.601667  0.750016  0.196946  1
  O  O302  1  0.898092  0.851833  0.313642  1
  O  O303  1  0.453468  0.898199  0.196937  1
  O  O304  1  0.601747  0.898175  0.111970  1
  O  O305  1  0.898185  0.750003  0.313600  1
  O  O306  1  0.351641  0.750014  0.196968  1
  O  O307  1  0.046345  0.851821  0.313630  1
  O  O308  1  -0.000000  0.851834  0.255305  1
  O  O309  1  0.351724  0.898190  0.196922  1
  O  O310  1  0.462100  0.960811  0.144893  1
  O  O311  1  0.133806  0.827013  0.310629  1
  O  O312  1  0.249870  0.827048  0.244078  1
  O  O313  1  0.366136  0.710809  0.244056  1
  O  O314  1  0.462033  0.827022  0.244066  1
  O  O315  1  0.845902  0.827033  0.310642  1
  O  O316  1  0.462120  0.710810  0.244041  1
  O  O317  1  0.366114  0.960814  0.199897  1
  O  O318  1  0.037836  0.923002  0.365650  1
  O  O319  1  0.653946  0.922982  0.365657  1
  O  O320  1  0.366037  0.672998  0.199944  1
  O  O321  1  0.249963  0.672981  0.266497  1
  O  O322  1  0.133688  0.789216  0.266522  1
  O  O323  1  0.037824  0.672994  0.266479  1
  O  O324  1  0.653954  0.672998  0.199909  1
  O  O325  1  0.037725  0.789216  0.266526  1
  O  O326  1  0.366029  0.923001  0.244064  1
  O  O327  1  0.249920  0.923000  0.244052  1
  O  O328  1  0.505458  0.997203  0.149192  1
  O  O329  1  0.249986  0.747211  0.294066  1
  O  O330  1  0.111743  0.885425  0.294089  1
  O  O331  1  0.388017  0.747241  0.214920  1
  O  O332  1  0.505460  0.747214  0.214894  1
  O  O333  1  0.867258  0.885428  0.294101  1
  O  O334  1  0.867379  0.747227  0.294051  1
  O  O335  1  0.249956  0.997222  0.216467  1
  O  O336  1  0.388027  0.997229  0.216482  1
  O  O337  1  0.632571  0.864609  0.361353  1
  O  O338  1  0.249852  0.752803  0.216511  1
  O  O339  1  0.111814  0.752787  0.295655  1
  O  O340  1  0.994391  0.752797  0.295661  1
  O  O341  1  0.632482  0.752813  0.216491  1
  O  O342  1  0.388055  0.864610  0.214888  1
  O  O343  1  0.749876  0.677196  0.164678  1
  O  O344  1  0.388953  0.933829  0.164653  1
  O  O345  1  0.110995  0.822846  0.345869  1
  O  O346  1  0.145591  0.927197  0.266223  1
  O  O347  1  0.493250  0.683820  0.206422  1
  O  O348  1  0.493179  0.822844  0.206436  1
  O  O349  1  0.749875  0.927178  0.345903  1
  O  O350  1  0.388989  0.683817  0.266204  1
  O  O351  1  0.145635  0.677177  0.304126  1
  O  O352  1  0.493239  0.933811  0.164665  1
  O  O353  1  0.388853  0.677181  0.164703  1
  O  O354  1  0.749973  0.822828  0.345867  1
  O  O355  1  0.388852  0.927180  0.266223  1
  O  O356  1  0.354195  0.822843  0.206437  1
  O  O357  1  0.006656  0.927169  0.345886  1
  O  O358  1  0.006670  0.677162  0.304109  1
  O  O359  1  0.006586  0.816193  0.304150  1
  O  O360  1  0.110858  0.816205  0.244366  1
  O  O361  1  0.499864  0.851838  0.255289  1
  O  O362  1  0.398104  0.101854  0.398587  1
  O  O363  1  0.648181  0.250045  0.600202  1
  O  O364  1  0.953493  0.148223  0.483531  1
  O  O365  1  0.101669  0.250032  0.483551  1
  O  O366  1  0.398176  -0.000000  0.398567  1
  O  O367  1  -0.000000  0.148224  0.541857  1
  O  O368  1  0.851675  -0.000000  0.541889  1
  O  O369  1  0.648100  0.101867  0.600242  1
  O  O370  1  0.398180  0.250029  0.600209  1
  O  O371  1  0.101744  0.148212  0.483517  1
  O  O372  1  0.851659  0.250038  0.483547  1
  O  O373  1  0.851742  0.148223  0.541866  1
  O  O374  1  0.546371  0.101847  0.600221  1
  O  O375  1  0.962033  0.077035  0.431504  1
  O  O376  1  0.345900  0.077049  0.431497  1
  O  O377  1  0.633787  0.327060  0.597226  1
  O  O378  1  0.749898  0.327059  0.530658  1
  O  O379  1  0.866137  0.210844  0.530641  1
  O  O380  1  0.962032  0.327046  0.530672  1
  O  O381  1  0.345900  0.327048  0.597245  1
  O  O382  1  0.962108  0.210839  0.530635  1
  O  O383  1  0.633817  0.077046  0.553093  1
  O  O384  1  0.749901  0.077063  0.553113  1
  O  O385  1  0.537748  0.039223  0.652260  1
  O  O386  1  0.866046  0.173028  0.486526  1
  O  O387  1  0.749941  0.173021  0.553091  1
  O  O388  1  0.633700  0.289243  0.553111  1
  O  O389  1  0.537815  0.173027  0.553090  1
  O  O390  1  0.153945  0.173004  0.486512  1
  O  O391  1  0.537730  0.289231  0.553121  1
  O  O392  1  0.633721  0.039237  0.597263  1
  O  O393  1  0.367276  0.135420  0.435801  1
  O  O394  1  0.749975  0.247256  0.580654  1
  O  O395  1  0.888046  0.247252  0.501495  1
  O  O396  1  0.005454  0.247247  0.501494  1
  O  O397  1  0.367374  0.247236  0.580659  1
  O  O398  1  0.611771  0.135447  0.582275  1
  O  O399  1  0.494393  0.002827  0.647962  1
  O  O400  1  0.132471  0.002801  0.647971  1
  O  O401  1  0.749861  0.252829  0.503096  1
  O  O402  1  0.888076  0.114634  0.503075  1
  O  O403  1  0.611787  0.252833  0.582257  1
  O  O404  1  0.494377  0.252836  0.582269  1
  O  O405  1  0.132579  0.114617  0.503057  1
  O  O406  1  0.132480  0.252808  0.503098  1
  O  O407  1  0.749876  0.002834  0.580694  1
  O  O408  1  0.611825  0.002814  0.580672  1
  O  O409  1  0.993197  0.072870  0.451272  1
  O  O410  1  0.249880  0.177202  0.451284  1
  O  O411  1  0.610988  0.322877  0.632462  1
  O  O412  1  0.993251  0.183852  0.493010  1
  O  O413  1  0.993194  0.322875  0.493039  1
  O  O414  1  0.888968  0.183856  0.552796  1
  O  O415  1  0.610992  0.072868  0.530935  1
  O  O416  1  0.645623  0.177218  0.590731  1
  O  O417  1  0.249965  0.072858  0.451253  1
  O  O418  1  0.888855  0.177196  0.451287  1
  O  O419  1  0.249972  0.322854  0.632472  1
  O  O420  1  0.854226  0.322861  0.493024  1
  O  O421  1  0.854224  0.072870  0.530944  1
  O  O422  1  0.506660  0.177201  0.590721  1
  O  O423  1  0.610883  0.066215  0.632506  1
  O  O424  1  0.506580  0.316239  0.590744  1
  O  O425  1  0.610864  0.316222  0.530957  1
  O  O426  1  0.506606  0.066225  0.632490  1
  O  O427  1  0.101674  -0.000000  0.398582  1
  O  O428  1  0.499986  0.148209  0.541866  1
  O  O429  1  0.648199  -0.000000  0.541871  1
  O  O430  1  0.101646  0.500043  0.398587  1
  O  O431  1  0.398092  0.601866  0.398593  1
  O  O432  1  0.648092  0.351864  0.541885  1
  O  O433  1  0.953471  0.648231  0.483534  1
  O  O434  1  0.398085  0.351863  0.600240  1
  O  O435  1  -0.000000  0.648191  0.541850  1
  O  O436  1  0.648195  0.500029  0.541867  1
  O  O437  1  0.648095  0.601864  0.600237  1
  O  O438  1  0.953496  0.398221  0.483534  1
  O  O439  1  0.398184  0.500035  0.398571  1
  O  O440  1  0.101748  0.398210  0.398571  1
  O  O441  1  0.101753  0.648195  0.483513  1
  O  O442  1  0.546342  0.351865  0.600221  1
  O  O443  1  0.851735  0.648215  0.541864  1
  O  O444  1  0.851663  0.500038  0.541887  1
  O  O445  1  0.546359  0.601845  0.600219  1
  O  O446  1  0.851760  0.398203  0.483517  1
  O  O447  1  0.962007  0.577053  0.431505  1
  O  O448  1  0.345895  0.577055  0.431503  1
  O  O449  1  0.962116  0.460826  0.431488  1
  O  O450  1  0.633811  0.577037  0.553089  1
  O  O451  1  0.749894  0.577059  0.553108  1
  O  O452  1  0.866153  0.460826  0.486490  1
  O  O453  1  0.866044  0.423030  0.530665  1
  O  O454  1  0.749958  0.423007  0.530647  1
  O  O455  1  0.633708  0.539238  0.597263  1
  O  O456  1  0.005439  0.497250  0.435790  1
  O  O457  1  0.367266  0.635429  0.435807  1
  O  O458  1  0.367372  0.497246  0.435780  1
  O  O459  1  0.611764  0.385449  0.580674  1
  O  O460  1  0.367267  0.385424  0.580693  1
  O  O461  1  0.749995  0.497232  0.503061  1
  O  O462  1  0.611769  0.635436  0.582269  1
  O  O463  1  0.888039  0.497252  0.503082  1
  O  O464  1  0.888056  0.614641  0.503075  1
  O  O465  1  0.132584  0.614601  0.503054  1
  O  O466  1  0.749866  0.502833  0.580693  1
  O  O467  1  0.888090  0.364623  0.501483  1
  O  O468  1  0.611811  0.502815  0.580674  1
  O  O469  1  0.993165  0.572887  0.451276  1
  O  O470  1  0.888989  0.433833  0.451247  1
  O  O471  1  0.645626  0.427211  0.552810  1
  O  O472  1  0.249865  0.427210  0.632499  1
  O  O473  1  0.611007  0.572857  0.530923  1
  O  O474  1  0.993255  0.433847  0.451264  1
  O  O475  1  0.249977  0.572846  0.451253  1
  O  O476  1  0.888866  0.427202  0.552825  1
  O  O477  1  0.506651  0.427215  0.632478  1
  O  O478  1  0.854218  0.572865  0.530939  1
  O  O479  1  0.610868  0.566231  0.632507  1
  O  O480  1  0.506592  0.566233  0.632493  1
  O  O481  1  0.499990  0.398220  0.398561  1
  O  O482  1  -0.000000  0.351845  0.541893  1
  O  O483  1  -0.000000  0.898200  0.398561  1
  O  O484  1  0.648169  0.750040  0.600197  1
  O  O485  1  0.648081  0.851880  0.541882  1
  O  O486  1  0.101659  0.750025  0.483555  1
  O  O487  1  0.398105  0.851853  0.600224  1
  O  O488  1  0.953501  0.898222  0.483538  1
  O  O489  1  0.101769  0.898193  0.398570  1
  O  O490  1  0.398203  0.750022  0.600197  1
  O  O491  1  0.851655  0.750046  0.483546  1
  O  O492  1  0.546346  0.851859  0.600213  1
  O  O493  1  0.851763  0.898207  0.483521  1
  O  O494  1  0.962135  0.960818  0.431490  1
  O  O495  1  0.633791  0.827049  0.597219  1
  O  O496  1  0.749890  0.827065  0.530657  1
  O  O497  1  0.866127  0.710840  0.530643  1
  O  O498  1  0.962018  0.827036  0.530676  1
  O  O499  1  0.345907  0.827043  0.597237  1
  O  O500  1  0.962118  0.710814  0.530631  1
  O  O501  1  0.866155  0.960832  0.486496  1
  O  O502  1  0.537808  0.923022  0.652246  1
  O  O503  1  0.153954  0.922994  0.652253  1
  O  O504  1  0.866020  0.673045  0.486529  1
  O  O505  1  0.749934  0.673015  0.553087  1
  O  O506  1  0.633699  0.789251  0.553102  1
  O  O507  1  0.537840  0.673013  0.553076  1
  O  O508  1  0.153942  0.672993  0.486513  1
  O  O509  1  0.537747  0.789229  0.553104  1
  O  O510  1  0.866049  0.923031  0.530667  1
  O  O511  1  0.749963  0.923005  0.530648  1
  O  O512  1  0.005476  0.997230  0.435786  1
  O  O513  1  0.367358  0.997242  0.435776  1
  O  O514  1  0.749968  0.747243  0.580654  1
  O  O515  1  0.611761  0.885448  0.580671  1
  O  O516  1  0.888031  0.747256  0.501500  1
  O  O517  1  0.005453  0.747233  0.501494  1
  O  O518  1  0.367271  0.885421  0.580683  1
  O  O519  1  0.367385  0.747228  0.580654  1
  O  O520  1  0.749996  0.997240  0.503066  1
  O  O521  1  0.888047  0.997256  0.503086  1
  O  O522  1  0.132600  0.864603  0.647951  1
  O  O523  1  0.749849  0.752851  0.503092  1
  O  O524  1  0.611795  0.752826  0.582244  1
  O  O525  1  0.494409  0.752823  0.582250  1
  O  O526  1  0.132463  0.752799  0.503106  1
  O  O527  1  0.888091  0.864625  0.501487  1
  O  O528  1  0.249868  0.677204  0.451290  1
  O  O529  1  0.889000  0.933831  0.451251  1
  O  O530  1  0.610968  0.822868  0.632460  1
  O  O531  1  0.645622  0.927219  0.552812  1
  O  O532  1  0.993246  0.683843  0.493010  1
  O  O533  1  0.993191  0.822870  0.493043  1
  O  O534  1  0.249880  0.927200  0.632490  1
  O  O535  1  0.888975  0.683832  0.552791  1
  O  O536  1  0.645609  0.677217  0.590725  1
  O  O537  1  0.993268  0.933841  0.451267  1
  O  O538  1  0.888840  0.677212  0.451287  1
  O  O539  1  0.249988  0.822842  0.632468  1
  O  O540  1  0.888864  0.927193  0.552830  1
  O  O541  1  0.854231  0.822861  0.493025  1
  O  O542  1  0.506650  0.927206  0.632473  1
  O  O543  1  0.506670  0.677195  0.590711  1
  O  O544  1  0.506593  0.816235  0.590730  1
  O  O545  1  0.610859  0.816236  0.530948  1
  O  O546  1  0.499965  0.898210  0.398560  1
  O  O547  1  0.898091  0.101844  0.398587  1
  O  O548  1  0.148204  0.250002  0.600200  1
  O  O549  1  0.453525  0.148172  0.483530  1
  O  O550  1  0.601669  0.250010  0.483553  1
  O  O551  1  0.351653  -0.000000  0.541880  1
  O  O552  1  0.148089  0.101841  0.600231  1
  O  O553  1  0.898190  0.250030  0.600197  1
  O  O554  1  0.601763  0.148179  0.483521  1
  O  O555  1  0.351706  0.249989  0.483544  1
  O  O556  1  0.351775  0.148166  0.541866  1
  O  O557  1  0.046338  0.101838  0.600218  1
  O  O558  1  0.462039  0.077009  0.431505  1
  O  O559  1  0.845909  0.077040  0.431498  1
  O  O560  1  0.133839  0.327003  0.597216  1
  O  O561  1  0.249945  0.327015  0.530652  1
  O  O562  1  0.366169  0.210788  0.530641  1
  O  O563  1  0.462033  0.327016  0.530671  1
  O  O564  1  0.845907  0.327062  0.597239  1
  O  O565  1  0.462119  0.210808  0.530641  1
  O  O566  1  0.133790  0.077024  0.553088  1
  O  O567  1  0.249890  0.077041  0.553102  1
  O  O568  1  0.037728  0.039220  0.652260  1
  O  O569  1  0.366076  0.172984  0.486526  1
  O  O570  1  0.249970  0.172977  0.553090  1
  O  O571  1  0.133737  0.289200  0.553102  1
  O  O572  1  0.037824  0.173015  0.553077  1
  O  O573  1  0.653957  0.172988  0.486513  1
  O  O574  1  0.037744  0.289228  0.553114  1
  O  O575  1  0.133687  0.039223  0.597259  1
  O  O576  1  0.867270  0.135426  0.435799  1
  O  O577  1  0.250010  0.247198  0.580653  1
  O  O578  1  0.388085  0.247203  0.501495  1
  O  O579  1  0.505471  0.247206  0.501493  1
  O  O580  1  0.867370  0.247260  0.580652  1
  O  O581  1  0.111762  0.135424  0.582264  1
  O  O582  1  0.994387  0.002809  0.647963  1
  O  O583  1  0.632486  0.002791  0.647974  1
  O  O584  1  0.249899  0.252790  0.503091  1
  O  O585  1  0.388102  0.114589  0.503076  1
  O  O586  1  0.111830  0.252787  0.582246  1
  O  O587  1  0.994404  0.252815  0.582254  1
  O  O588  1  0.632584  0.114616  0.503067  1
  O  O589  1  0.632478  0.252800  0.503101  1
  O  O590  1  0.249851  0.002808  0.580686  1
  O  O591  1  0.111778  0.002809  0.580673  1
  O  O592  1  0.493208  0.072824  0.451275  1
  O  O593  1  0.749876  0.177192  0.451286  1
  O  O594  1  0.111013  0.322841  0.632459  1
  O  O595  1  0.493280  0.183798  0.493013  1
  O  O596  1  0.493206  0.322836  0.493036  1
  O  O597  1  0.388996  0.183811  0.552799  1
  O  O598  1  0.110966  0.072863  0.530928  1
  O  O599  1  0.145627  0.177185  0.590724  1
  O  O600  1  0.749984  0.072833  0.451259  1
  O  O601  1  0.388889  0.177161  0.451287  1
  O  O602  1  0.749980  0.322858  0.632466  1
  O  O603  1  0.354271  0.322813  0.493015  1
  O  O604  1  0.354234  0.072824  0.530937  1
  O  O605  1  0.006656  0.177186  0.590710  1
  O  O606  1  0.110859  0.066210  0.632500  1
  O  O607  1  0.006616  0.316202  0.590735  1
  O  O608  1  0.110897  0.316201  0.530949  1
  O  O609  1  0.006576  0.066212  0.632489  1
  O  O610  1  0.000000  0.101835  0.398593  1
  O  O611  1  0.898193  -0.000000  0.398572  1
  O  O612  1  0.148151  0.000000  0.541870  1
  O  O613  1  0.499880  0.101821  0.398595  1
  O  O614  1  0.601677  0.500023  0.398588  1
  O  O615  1  0.898103  0.601844  0.398578  1
  O  O616  1  0.148140  0.351818  0.541876  1
  O  O617  1  0.453484  0.648203  0.483542  1
  O  O618  1  0.898108  0.351854  0.600233  1
  O  O619  1  0.148217  0.499993  0.541853  1
  O  O620  1  0.148107  0.601833  0.600225  1
  O  O621  1  0.453515  0.398186  0.483529  1
  O  O622  1  0.898204  0.500010  0.398562  1
  O  O623  1  0.601762  0.398195  0.398568  1
  O  O624  1  0.601761  0.648185  0.483515  1
  O  O625  1  0.046393  0.351813  0.600210  1
  O  O626  1  0.351759  0.648178  0.541873  1
  O  O627  1  0.351670  0.500005  0.541884  1
  O  O628  1  0.046378  0.601814  0.600206  1
  O  O629  1  0.351786  0.398170  0.483507  1
  O  O630  1  0.462041  0.577022  0.431506  1
  O  O631  1  0.845911  0.577045  0.431490  1
  O  O632  1  0.462118  0.460823  0.431492  1
  O  O633  1  0.133821  0.577009  0.553078  1
  O  O634  1  0.249915  0.577027  0.553098  1
  O  O635  1  0.366159  0.460802  0.486490  1
  O  O636  1  0.366060  0.422993  0.530659  1
  O  O637  1  0.249986  0.422971  0.530633  1
  O  O638  1  0.133722  0.539206  0.597250  1
  O  O639  1  0.505476  0.497217  0.435789  1
  O  O640  1  0.867254  0.635445  0.435796  1
  O  O641  1  0.867387  0.497236  0.435771  1
  O  O642  1  0.111816  0.385398  0.580665  1
  O  O643  1  0.867274  0.385446  0.580693  1
  O  O644  1  0.250007  0.497205  0.503053  1
  O  O645  1  0.111787  0.635409  0.582256  1
  O  O646  1  0.388068  0.497216  0.503076  1
  O  O647  1  0.388100  0.614591  0.503080  1
  O  O648  1  0.632602  0.614611  0.503055  1
  O  O649  1  0.249871  0.502802  0.580686  1
  O  O650  1  0.388109  0.364591  0.501476  1
  O  O651  1  0.111836  0.502781  0.580658  1
  O  O652  1  0.493200  0.572848  0.451279  1
  O  O653  1  0.389000  0.433821  0.451245  1
  O  O654  1  0.145665  0.427165  0.552798  1
  O  O655  1  0.749885  0.427208  0.632496  1
  O  O656  1  0.111008  0.572832  0.530915  1
  O  O657  1  0.493273  0.433814  0.451260  1
  O  O658  1  0.749988  0.572841  0.451249  1
  O  O659  1  0.388864  0.427173  0.552825  1
  O  O660  1  0.006693  0.427163  0.632467  1
  O  O661  1  0.354235  0.572828  0.530944  1
  O  O662  1  0.110864  0.566215  0.632499  1
  O  O663  1  0.006611  0.566196  0.632477  1
  O  O664  1  0.500005  0.648199  0.541855  1
  O  O665  1  -0.000000  0.601851  0.398593  1
  O  O666  1  0.499862  0.601845  0.398602  1
  O  O667  1  0.499865  0.351830  0.541894  1
  O  O668  1  0.601669  -0.000000  0.398588  1
  O  O669  1  0.148190  0.750005  0.600205  1
  O  O670  1  0.148079  0.851841  0.541894  1
  O  O671  1  0.601667  0.750016  0.483542  1
  O  O672  1  0.898092  0.851833  0.600238  1
  O  O673  1  0.453468  0.898199  0.483533  1
  O  O674  1  0.601747  0.898175  0.398566  1
  O  O675  1  0.898185  0.750003  0.600196  1
  O  O676  1  0.351641  0.750014  0.483564  1
  O  O677  1  0.046345  0.851821  0.600226  1
  O  O678  1  -0.000000  0.851834  0.541901  1
  O  O679  1  0.351724  0.898190  0.483518  1
  O  O680  1  0.462100  0.960811  0.431489  1
  O  O681  1  0.133806  0.827013  0.597225  1
  O  O682  1  0.249870  0.827048  0.530674  1
  O  O683  1  0.366136  0.710809  0.530652  1
  O  O684  1  0.462033  0.827022  0.530662  1
  O  O685  1  0.845902  0.827033  0.597238  1
  O  O686  1  0.462120  0.710810  0.530637  1
  O  O687  1  0.366114  0.960814  0.486493  1
  O  O688  1  0.037836  0.923002  0.652246  1
  O  O689  1  0.653946  0.922982  0.652253  1
  O  O690  1  0.366037  0.672998  0.486539  1
  O  O691  1  0.249963  0.672981  0.553093  1
  O  O692  1  0.133688  0.789216  0.553118  1
  O  O693  1  0.037824  0.672994  0.553075  1
  O  O694  1  0.653954  0.672998  0.486505  1
  O  O695  1  0.037725  0.789216  0.553122  1
  O  O696  1  0.366029  0.923001  0.530660  1
  O  O697  1  0.249920  0.923000  0.530648  1
  O  O698  1  0.505458  0.997203  0.435788  1
  O  O699  1  0.867393  0.997233  0.435778  1
  O  O700  1  0.249986  0.747211  0.580662  1
  O  O701  1  0.111743  0.885425  0.580685  1
  O  O702  1  0.388017  0.747241  0.501516  1
  O  O703  1  0.505460  0.747214  0.501490  1
  O  O704  1  0.867258  0.885428  0.580697  1
  O  O705  1  0.867379  0.747227  0.580647  1
  O  O706  1  0.249956  0.997222  0.503063  1
  O  O707  1  0.388027  0.997229  0.503078  1
  O  O708  1  0.632571  0.864609  0.647949  1
  O  O709  1  0.249852  0.752803  0.503107  1
  O  O710  1  0.111814  0.752787  0.582251  1
  O  O711  1  0.994391  0.752797  0.582256  1
  O  O712  1  0.632482  0.752813  0.503087  1
  O  O713  1  0.388055  0.864610  0.501484  1
  O  O714  1  0.749876  0.677196  0.451274  1
  O  O715  1  0.388953  0.933829  0.451249  1
  O  O716  1  0.110995  0.822846  0.632465  1
  O  O717  1  0.145591  0.927197  0.552819  1
  O  O718  1  0.493250  0.683820  0.493018  1
  O  O719  1  0.493179  0.822844  0.493032  1
  O  O720  1  0.749875  0.927178  0.632499  1
  O  O721  1  0.388989  0.683817  0.552800  1
  O  O722  1  0.145635  0.677177  0.590722  1
  O  O723  1  0.493239  0.933811  0.451261  1
  O  O724  1  0.388853  0.677181  0.451299  1
  O  O725  1  0.749973  0.822828  0.632463  1
  O  O726  1  0.388852  0.927180  0.552819  1
  O  O727  1  0.354195  0.822843  0.493033  1
  O  O728  1  0.006656  0.927169  0.632482  1
  O  O729  1  0.006670  0.677162  0.590705  1
  O  O730  1  0.006586  0.816193  0.590746  1
  O  O731  1  0.110858  0.816205  0.530962  1
  O  O732  1  0.499864  0.851838  0.541885  1
  O  O733  1  0.398104  0.101854  0.685183  1
  O  O734  1  0.398176  -0.000000  0.685163  1
  O  O735  1  0.101674  -0.000000  0.685178  1
  O  O736  1  0.000000  0.898200  0.685157  1
  O  O737  1  0.101769  0.898193  0.685166  1
  O  O738  1  0.499965  0.898210  0.685156  1
  O  O739  1  0.898091  0.101844  0.685183  1
  O  O740  1  -0.000000  0.101835  0.685189  1
  O  O741  1  0.898193  0.000000  0.685168  1
  O  O742  1  0.499880  0.101821  0.685191  1
  O  O743  1  0.601669  0.000000  0.685184  1
  O  O744  1  0.601747  0.898175  0.685162  1
  Si  Si745  1  0.928134  0.124867  0.193817  1
  Si  Si746  1  0.660566  0.053158  0.316771  1
  Si  Si747  1  0.660552  0.303157  0.245021  1
  Si  Si748  1  0.338496  0.125208  0.143034  1
  Si  Si749  1  0.660661  0.286277  0.316726  1
  Si  Si750  1  0.928174  0.196930  0.214575  1
  Si  Si751  1  0.016724  0.286267  0.214603  1
  Si  Si752  1  0.927888  0.196934  0.265536  1
  Si  Si753  1  0.660684  0.036264  0.245000  1
  Si  Si754  1  0.660990  0.125224  0.295991  1
  Si  Si755  1  0.338564  0.036258  0.143016  1
  Si  Si756  1  0.338571  0.286253  0.316735  1
  Si  Si757  1  0.016796  0.196920  0.214569  1
  Si  Si758  1  0.838815  0.286267  0.214592  1
  Si  Si759  1  0.839282  0.196928  0.265538  1
  Si  Si760  1  0.838823  0.036269  0.245016  1
  Si  Si761  1  0.571722  0.125209  0.295974  1
  Si  Si762  1  0.571969  0.053123  0.367549  1
  Si  Si763  1  0.839175  0.213806  0.193832  1
  Si  Si764  1  0.838854  0.124861  0.245005  1
  Si  Si765  1  0.571664  0.303157  0.295985  1
  Si  Si766  1  0.483121  0.213807  0.295967  1
  Si  Si767  1  0.161350  0.124847  0.193799  1
  Si  Si768  1  0.571953  0.303131  0.245025  1
  Si  Si769  1  0.571694  0.053141  0.316753  1
  Si  Si770  1  0.483054  0.053151  0.367543  1
  Si  Si771  1  0.161281  0.213797  0.193830  1
  Si  Si772  1  0.572051  0.124862  0.245002  1
  Si  Si773  1  0.483034  0.303161  0.295997  1
  Si  Si774  1  0.661023  0.213815  0.295967  1
  Si  Si775  1  0.660556  0.553159  0.316769  1
  Si  Si776  1  0.928135  0.374867  0.214593  1
  Si  Si777  1  0.483043  0.553166  0.367548  1
  Si  Si778  1  0.661036  0.463803  0.265552  1
  Si  Si779  1  0.928106  0.624882  0.193820  1
  Si  Si780  1  0.572077  0.624849  0.244988  1
  Si  Si781  1  0.338486  0.625216  0.143040  1
  Si  Si782  1  0.660984  0.375222  0.265553  1
  Si  Si783  1  0.338485  0.375212  0.316765  1
  Si  Si784  1  0.660684  0.536254  0.244994  1
  Si  Si785  1  0.660983  0.625220  0.295986  1
  Si  Si786  1  0.928178  0.446923  0.193809  1
  Si  Si787  1  0.338569  0.536259  0.143021  1
  Si  Si788  1  0.927801  0.375207  0.265567  1
  Si  Si789  1  0.571701  0.375222  0.316743  1
  Si  Si790  1  0.838815  0.536265  0.245012  1
  Si  Si791  1  0.571718  0.625200  0.295969  1
  Si  Si792  1  0.839305  0.446904  0.193792  1
  Si  Si793  1  0.483124  0.463814  0.367530  1
  Si  Si794  1  0.161358  0.374845  0.367528  1
  Si  Si795  1  0.571954  0.553147  0.367554  1
  Si  Si796  1  0.838846  0.624857  0.245002  1
  Si  Si797  1  0.161355  0.624833  0.193796  1
  Si  Si798  1  0.839178  0.463809  0.265567  1
  Si  Si799  1  0.838868  0.374847  0.214576  1
  Si  Si800  1  0.571679  0.553144  0.316753  1
  Si  Si801  1  0.161269  0.463805  0.367542  1
  Si  Si802  1  0.572056  0.374869  0.367521  1
  Si  Si803  1  0.661014  0.713811  0.295960  1
  Si  Si804  1  0.928138  0.874867  0.214596  1
  Si  Si805  1  0.661042  0.963804  0.265553  1
  Si  Si806  1  0.660540  0.803176  0.245016  1
  Si  Si807  1  0.660655  0.786267  0.316721  1
  Si  Si808  1  0.660979  0.875228  0.265551  1
  Si  Si809  1  0.928160  0.696931  0.214578  1
  Si  Si810  1  0.016716  0.786257  0.214606  1
  Si  Si811  1  0.338496  0.875206  0.316754  1
  Si  Si812  1  0.927904  0.696902  0.265530  1
  Si  Si813  1  0.928183  0.946927  0.193814  1
  Si  Si814  1  0.338585  0.786246  0.316728  1
  Si  Si815  1  0.927783  0.875196  0.265573  1
  Si  Si816  1  0.016801  0.696903  0.214566  1
  Si  Si817  1  0.838811  0.786270  0.214593  1
  Si  Si818  1  0.571703  0.875214  0.316737  1
  Si  Si819  1  0.839278  0.696916  0.265537  1
  Si  Si820  1  0.839306  0.946911  0.193798  1
  Si  Si821  1  0.483121  0.963806  0.367525  1
  Si  Si822  1  0.161370  0.874832  0.367527  1
  Si  Si823  1  0.839161  0.713823  0.193832  1
  Si  Si824  1  0.571671  0.803154  0.295973  1
  Si  Si825  1  0.483147  0.713796  0.295953  1
  Si  Si826  1  0.571958  0.803139  0.245012  1
  Si  Si827  1  0.839188  0.963808  0.265568  1
  Si  Si828  1  0.838874  0.874846  0.214578  1
  Si  Si829  1  0.161281  0.963792  0.367538  1
  Si  Si830  1  0.572037  0.874857  0.367520  1
  Si  Si831  1  0.161272  0.713790  0.193834  1
  Si  Si832  1  0.483057  0.803152  0.295979  1
  Si  Si833  1  0.516728  0.036226  0.143033  1
  Si  Si834  1  0.160697  0.286227  0.316721  1
  Si  Si835  1  0.428203  0.196878  0.214576  1
  Si  Si836  1  0.516730  0.286233  0.214602  1
  Si  Si837  1  0.427899  0.196906  0.265543  1
  Si  Si838  1  0.160644  0.036250  0.244997  1
  Si  Si839  1  0.160981  0.125200  0.295981  1
  Si  Si840  1  0.427809  0.125173  0.143040  1
  Si  Si841  1  0.838574  0.286267  0.316728  1
  Si  Si842  1  0.516815  0.196880  0.214572  1
  Si  Si843  1  0.338866  0.286218  0.214587  1
  Si  Si844  1  0.339319  0.196870  0.265538  1
  Si  Si845  1  0.338812  0.036240  0.245006  1
  Si  Si846  1  0.071707  0.125188  0.295966  1
  Si  Si847  1  0.071944  0.053128  0.367548  1
  Si  Si848  1  0.339212  0.213764  0.193832  1
  Si  Si849  1  0.338880  0.124813  0.245005  1
  Si  Si850  1  0.071704  0.303111  0.295975  1
  Si  Si851  1  0.983135  0.213794  0.295953  1
  Si  Si852  1  0.661367  0.124827  0.193803  1
  Si  Si853  1  0.071961  0.303135  0.245022  1
  Si  Si854  1  0.071652  0.053134  0.316752  1
  Si  Si855  1  0.983037  0.053139  0.367542  1
  Si  Si856  1  0.661280  0.213786  0.193833  1
  Si  Si857  1  0.072049  0.124857  0.244991  1
  Si  Si858  1  0.983060  0.303143  0.295988  1
  Si  Si859  1  0.161048  0.213775  0.295962  1
  Si  Si860  1  0.428162  0.124819  0.193817  1
  Si  Si861  1  0.160591  0.303119  0.245013  1
  Si  Si862  1  0.160542  0.053139  0.316763  1
  Si  Si863  1  0.160563  0.553132  0.316759  1
  Si  Si864  1  0.516735  0.536244  0.143034  1
  Si  Si865  1  0.427901  0.446918  0.143011  1
  Si  Si866  1  0.161034  0.375174  0.265544  1
  Si  Si867  1  0.838501  0.375220  0.316760  1
  Si  Si868  1  0.160693  0.536227  0.244983  1
  Si  Si869  1  0.161000  0.625189  0.295975  1
  Si  Si870  1  0.428193  0.446892  0.193805  1
  Si  Si871  1  0.427796  0.625189  0.143045  1
  Si  Si872  1  0.516813  0.446894  0.143018  1
  Si  Si873  1  0.427797  0.375181  0.265567  1
  Si  Si874  1  0.071756  0.375165  0.316731  1
  Si  Si875  1  0.338832  0.536232  0.245008  1
  Si  Si876  1  0.071735  0.625170  0.295957  1
  Si  Si877  1  0.339315  0.446882  0.193789  1
  Si  Si878  1  0.983150  0.463778  0.367520  1
  Si  Si879  1  0.661363  0.374848  0.367526  1
  Si  Si880  1  0.071942  0.553139  0.367549  1
  Si  Si881  1  0.338873  0.624819  0.245010  1
  Si  Si882  1  0.661371  0.624832  0.193794  1
  Si  Si883  1  0.339185  0.463776  0.265563  1
  Si  Si884  1  0.338898  0.374809  0.214565  1
  Si  Si885  1  0.071696  0.553111  0.316739  1
  Si  Si886  1  0.661287  0.463802  0.367543  1
  Si  Si887  1  0.072076  0.374841  0.367515  1
  Si  Si888  1  0.983057  0.553135  0.367534  1
  Si  Si889  1  0.072065  0.624830  0.244985  1
  Si  Si890  1  0.428138  0.624836  0.193826  1
  Si  Si891  1  0.161066  0.463765  0.265535  1
  Si  Si892  1  0.428156  0.374829  0.214586  1
  Si  Si893  1  0.160998  0.963795  0.265553  1
  Si  Si894  1  0.428115  0.874840  0.214589  1
  Si  Si895  1  0.427875  0.946912  0.143010  1
  Si  Si896  1  0.160673  0.786236  0.316729  1
  Si  Si897  1  0.160960  0.875206  0.265565  1
  Si  Si898  1  0.428158  0.696909  0.214589  1
  Si  Si899  1  0.516723  0.786241  0.214594  1
  Si  Si900  1  0.838492  0.875193  0.316761  1
  Si  Si901  1  0.427910  0.696901  0.265537  1
  Si  Si902  1  0.428147  0.946904  0.193809  1
  Si  Si903  1  0.516795  0.946881  0.143015  1
  Si  Si904  1  0.838571  0.786237  0.316726  1
  Si  Si905  1  0.427795  0.875186  0.265559  1
  Si  Si906  1  0.516808  0.696887  0.214570  1
  Si  Si907  1  0.338791  0.786250  0.214609  1
  Si  Si908  1  0.071709  0.875176  0.316746  1
  Si  Si909  1  0.339296  0.696885  0.265546  1
  Si  Si910  1  0.339267  0.946894  0.193794  1
  Si  Si911  1  0.983135  0.963779  0.367529  1
  Si  Si912  1  0.661355  0.874820  0.367523  1
  Si  Si913  1  0.339164  0.713781  0.193847  1
  Si  Si914  1  0.071663  0.803118  0.295988  1
  Si  Si915  1  0.983129  0.713773  0.295953  1
  Si  Si916  1  0.071940  0.803125  0.245030  1
  Si  Si917  1  0.339164  0.963783  0.265561  1
  Si  Si918  1  0.338831  0.874837  0.214578  1
  Si  Si919  1  0.661279  0.963774  0.367543  1
  Si  Si920  1  0.072075  0.874839  0.367518  1
  Si  Si921  1  0.661280  0.713794  0.193822  1
  Si  Si922  1  0.983041  0.803128  0.295995  1
  Si  Si923  1  0.161041  0.713775  0.295965  1
  Si  Si924  1  0.160542  0.803134  0.245029  1
  Si  Si925  1  0.928134  0.124867  0.480413  1
  Si  Si926  1  0.660566  0.053158  0.603367  1
  Si  Si927  1  0.660552  0.303157  0.531617  1
  Si  Si928  1  0.016733  0.036257  0.429625  1
  Si  Si929  1  0.338496  0.125208  0.429630  1
  Si  Si930  1  0.660661  0.286277  0.603322  1
  Si  Si931  1  0.928174  0.196930  0.501171  1
  Si  Si932  1  0.016724  0.286267  0.501199  1
  Si  Si933  1  0.927888  0.196934  0.552132  1
  Si  Si934  1  0.660684  0.036264  0.531596  1
  Si  Si935  1  0.660990  0.125224  0.582587  1
  Si  Si936  1  0.338564  0.036258  0.429612  1
  Si  Si937  1  0.927793  0.125195  0.429635  1
  Si  Si938  1  0.338571  0.286253  0.603331  1
  Si  Si939  1  0.016796  0.196920  0.501164  1
  Si  Si940  1  0.838815  0.286267  0.501188  1
  Si  Si941  1  0.839282  0.196928  0.552134  1
  Si  Si942  1  0.838823  0.036269  0.531612  1
  Si  Si943  1  0.571722  0.125209  0.582570  1
  Si  Si944  1  0.571969  0.053123  0.654145  1
  Si  Si945  1  0.839175  0.213806  0.480428  1
  Si  Si946  1  0.838854  0.124861  0.531601  1
  Si  Si947  1  0.571664  0.303157  0.582581  1
  Si  Si948  1  0.483121  0.213807  0.582563  1
  Si  Si949  1  0.161350  0.124847  0.480395  1
  Si  Si950  1  0.571953  0.303131  0.531621  1
  Si  Si951  1  0.571694  0.053141  0.603348  1
  Si  Si952  1  0.483054  0.053151  0.654138  1
  Si  Si953  1  0.161281  0.213797  0.480426  1
  Si  Si954  1  0.572051  0.124862  0.531598  1
  Si  Si955  1  0.483034  0.303161  0.582593  1
  Si  Si956  1  0.661023  0.213815  0.582563  1
  Si  Si957  1  0.660556  0.553159  0.603365  1
  Si  Si958  1  0.928135  0.374867  0.501189  1
  Si  Si959  1  0.661036  0.463803  0.552148  1
  Si  Si960  1  0.928106  0.624882  0.480416  1
  Si  Si961  1  0.572077  0.624849  0.531584  1
  Si  Si962  1  0.016699  0.536276  0.429629  1
  Si  Si963  1  0.338486  0.625216  0.429636  1
  Si  Si964  1  0.927908  0.446912  0.429602  1
  Si  Si965  1  0.660984  0.375222  0.552149  1
  Si  Si966  1  0.338485  0.375212  0.603361  1
  Si  Si967  1  0.660684  0.536254  0.531590  1
  Si  Si968  1  0.660983  0.625220  0.582582  1
  Si  Si969  1  0.928178  0.446923  0.480405  1
  Si  Si970  1  0.338569  0.536259  0.429617  1
  Si  Si971  1  0.927773  0.625214  0.429634  1
  Si  Si972  1  0.016797  0.446916  0.429614  1
  Si  Si973  1  0.927801  0.375207  0.552163  1
  Si  Si974  1  0.571701  0.375222  0.603339  1
  Si  Si975  1  0.838815  0.536265  0.531608  1
  Si  Si976  1  0.571718  0.625200  0.582565  1
  Si  Si977  1  0.839305  0.446904  0.480388  1
  Si  Si978  1  0.838846  0.624857  0.531598  1
  Si  Si979  1  0.161355  0.624833  0.480392  1
  Si  Si980  1  0.839178  0.463809  0.552163  1
  Si  Si981  1  0.838868  0.374847  0.501172  1
  Si  Si982  1  0.571679  0.553144  0.603349  1
  Si  Si983  1  0.661014  0.713811  0.582556  1
  Si  Si984  1  0.928138  0.874867  0.501192  1
  Si  Si985  1  0.661042  0.963804  0.552148  1
  Si  Si986  1  0.660540  0.803176  0.531612  1
  Si  Si987  1  0.927920  0.946908  0.429606  1
  Si  Si988  1  0.660655  0.786267  0.603317  1
  Si  Si989  1  0.660979  0.875228  0.552147  1
  Si  Si990  1  0.928160  0.696931  0.501174  1
  Si  Si991  1  0.016716  0.786257  0.501201  1
  Si  Si992  1  0.338496  0.875206  0.603350  1
  Si  Si993  1  0.927904  0.696902  0.552125  1
  Si  Si994  1  0.928183  0.946927  0.480409  1
  Si  Si995  1  0.016821  0.946902  0.429614  1
  Si  Si996  1  0.338585  0.786246  0.603324  1
  Si  Si997  1  0.927783  0.875196  0.552169  1
  Si  Si998  1  0.016801  0.696903  0.501162  1
  Si  Si999  1  0.838811  0.786270  0.501189  1
  Si  Si1000  1  0.571703  0.875214  0.603333  1
  Si  Si1001  1  0.839278  0.696916  0.552133  1
  Si  Si1002  1  0.839306  0.946911  0.480394  1
  Si  Si1003  1  0.483121  0.963806  0.654121  1
  Si  Si1004  1  0.161370  0.874832  0.654123  1
  Si  Si1005  1  0.839161  0.713823  0.480428  1
  Si  Si1006  1  0.571671  0.803154  0.582569  1
  Si  Si1007  1  0.483147  0.713796  0.582549  1
  Si  Si1008  1  0.571958  0.803139  0.531608  1
  Si  Si1009  1  0.839188  0.963808  0.552164  1
  Si  Si1010  1  0.838874  0.874846  0.501174  1
  Si  Si1011  1  0.161281  0.963792  0.654134  1
  Si  Si1012  1  0.572037  0.874857  0.654116  1
  Si  Si1013  1  0.161272  0.713790  0.480430  1
  Si  Si1014  1  0.483057  0.803152  0.582575  1
  Si  Si1015  1  0.516728  0.036226  0.429629  1
  Si  Si1016  1  0.838496  0.125201  0.429628  1
  Si  Si1017  1  0.160697  0.286227  0.603317  1
  Si  Si1018  1  0.428203  0.196878  0.501172  1
  Si  Si1019  1  0.516730  0.286233  0.501198  1
  Si  Si1020  1  0.427899  0.196906  0.552139  1
  Si  Si1021  1  0.160644  0.036250  0.531593  1
  Si  Si1022  1  0.160981  0.125200  0.582577  1
  Si  Si1023  1  0.838582  0.036242  0.429615  1
  Si  Si1024  1  0.427809  0.125173  0.429636  1
  Si  Si1025  1  0.838574  0.286267  0.603324  1
  Si  Si1026  1  0.516815  0.196880  0.501168  1
  Si  Si1027  1  0.338866  0.286218  0.501183  1
  Si  Si1028  1  0.339319  0.196870  0.552134  1
  Si  Si1029  1  0.338812  0.036240  0.531602  1
  Si  Si1030  1  0.071707  0.125188  0.582562  1
  Si  Si1031  1  0.071944  0.053128  0.654144  1
  Si  Si1032  1  0.339212  0.213764  0.480428  1
  Si  Si1033  1  0.338880  0.124813  0.531601  1
  Si  Si1034  1  0.071704  0.303111  0.582571  1
  Si  Si1035  1  0.983135  0.213794  0.582549  1
  Si  Si1036  1  0.661367  0.124827  0.480399  1
  Si  Si1037  1  0.071961  0.303135  0.531618  1
  Si  Si1038  1  0.071652  0.053134  0.603348  1
  Si  Si1039  1  0.983037  0.053139  0.654138  1
  Si  Si1040  1  0.661280  0.213786  0.480429  1
  Si  Si1041  1  0.072049  0.124857  0.531587  1
  Si  Si1042  1  0.983060  0.303143  0.582583  1
  Si  Si1043  1  0.161048  0.213775  0.582558  1
  Si  Si1044  1  0.428162  0.124819  0.480413  1
  Si  Si1045  1  0.160591  0.303119  0.531609  1
  Si  Si1046  1  0.160542  0.053139  0.603359  1
  Si  Si1047  1  0.160563  0.553132  0.603355  1
  Si  Si1048  1  0.516735  0.536244  0.429630  1
  Si  Si1049  1  0.838494  0.625208  0.429621  1
  Si  Si1050  1  0.427901  0.446918  0.429607  1
  Si  Si1051  1  0.161034  0.375174  0.552140  1
  Si  Si1052  1  0.838501  0.375220  0.603356  1
  Si  Si1053  1  0.160693  0.536227  0.531579  1
  Si  Si1054  1  0.161000  0.625189  0.582571  1
  Si  Si1055  1  0.428193  0.446892  0.480401  1
  Si  Si1056  1  0.838587  0.536246  0.429606  1
  Si  Si1057  1  0.427796  0.625189  0.429641  1
  Si  Si1058  1  0.516813  0.446894  0.429614  1
  Si  Si1059  1  0.427797  0.375181  0.552163  1
  Si  Si1060  1  0.071756  0.375165  0.603327  1
  Si  Si1061  1  0.338832  0.536232  0.531604  1
  Si  Si1062  1  0.071735  0.625170  0.582553  1
  Si  Si1063  1  0.339315  0.446882  0.480385  1
  Si  Si1064  1  0.338873  0.624819  0.531606  1
  Si  Si1065  1  0.661371  0.624832  0.480390  1
  Si  Si1066  1  0.339185  0.463776  0.552159  1
  Si  Si1067  1  0.338898  0.374809  0.501160  1
  Si  Si1068  1  0.071696  0.553111  0.603335  1
  Si  Si1069  1  0.072065  0.624830  0.531581  1
  Si  Si1070  1  0.428138  0.624836  0.480422  1
  Si  Si1071  1  0.161066  0.463765  0.552131  1
  Si  Si1072  1  0.428156  0.374829  0.501182  1
  Si  Si1073  1  0.160998  0.963795  0.552149  1
  Si  Si1074  1  0.428115  0.874840  0.501185  1
  Si  Si1075  1  0.427875  0.946912  0.429606  1
  Si  Si1076  1  0.160673  0.786236  0.603325  1
  Si  Si1077  1  0.160960  0.875206  0.552161  1
  Si  Si1078  1  0.428158  0.696909  0.501185  1
  Si  Si1079  1  0.516723  0.786241  0.501190  1
  Si  Si1080  1  0.838492  0.875193  0.603357  1
  Si  Si1081  1  0.427910  0.696901  0.552133  1
  Si  Si1082  1  0.428147  0.946904  0.480405  1
  Si  Si1083  1  0.516795  0.946881  0.429611  1
  Si  Si1084  1  0.838571  0.786237  0.603322  1
  Si  Si1085  1  0.427795  0.875186  0.552154  1
  Si  Si1086  1  0.516808  0.696887  0.501166  1
  Si  Si1087  1  0.338791  0.786250  0.501205  1
  Si  Si1088  1  0.071709  0.875176  0.603342  1
  Si  Si1089  1  0.339296  0.696885  0.552142  1
  Si  Si1090  1  0.339267  0.946894  0.480390  1
  Si  Si1091  1  0.983135  0.963779  0.654125  1
  Si  Si1092  1  0.661355  0.874820  0.654119  1
  Si  Si1093  1  0.339164  0.713781  0.480443  1
  Si  Si1094  1  0.071663  0.803118  0.582584  1
  Si  Si1095  1  0.983129  0.713773  0.582549  1
  Si  Si1096  1  0.071940  0.803125  0.531626  1
  Si  Si1097  1  0.339164  0.963783  0.552156  1
  Si  Si1098  1  0.338831  0.874837  0.501174  1
  Si  Si1099  1  0.661279  0.963774  0.654139  1
  Si  Si1100  1  0.072075  0.874839  0.654114  1
  Si  Si1101  1  0.661280  0.713794  0.480417  1
  Si  Si1102  1  0.983041  0.803128  0.582591  1
  Si  Si1103  1  0.161041  0.713775  0.582561  1
  Si  Si1104  1  0.160542  0.803134  0.531625  1
  H  H1105  1  0.398104  0.101854  0.101450  1
  H  H1106  1  0.398176  0.000000  0.101430  1
  H  H1107  1  0.993197  0.072870  0.154135  1
  H  H1108  1  0.888855  0.177196  0.154150  1
  H  H1109  1  0.398092  0.601866  0.101456  1
  H  H1110  1  0.398184  0.500035  0.101434  1
  H  H1111  1  0.993165  0.572887  0.154138  1
  H  H1112  1  0.888989  0.433833  0.154109  1
  H  H1113  1  0.993255  0.433847  0.154127  1
  H  H1114  1  0.499990  0.398220  0.101423  1
  H  H1115  1  0.889000  0.933831  0.154114  1
  H  H1116  1  0.993268  0.933841  0.154129  1
  H  H1117  1  0.888840  0.677212  0.154150  1
  H  H1118  1  0.499965  0.898210  0.101422  1
  H  H1119  1  0.749876  0.177192  0.154148  1
  H  H1120  1  0.749984  0.072833  0.154122  1
  H  H1121  1  0.499880  0.101821  0.101458  1
  H  H1122  1  0.601677  0.500023  0.101451  1
  H  H1123  1  0.601762  0.398195  0.101430  1
  H  H1124  1  0.749988  0.572841  0.154112  1
  H  H1125  1  0.499862  0.601845  0.101464  1
  H  H1126  1  0.601669  -0.000000  0.101451  1
  H  H1127  1  0.601747  0.898175  0.101429  1
  H  H1128  1  0.749876  0.677196  0.154137  1
  H  H1129  1  0.610988  0.322877  0.643004  1
  H  H1130  1  0.249972  0.322854  0.643014  1
  H  H1131  1  0.249865  0.427210  0.643040  1
  H  H1132  1  0.506651  0.427215  0.643019  1
  H  H1133  1  0.610868  0.566231  0.643048  1
  H  H1134  1  0.506592  0.566233  0.643035  1
  H  H1135  1  0.111013  0.322841  0.643000  1
  H  H1136  1  0.749980  0.322858  0.643007  1
  H  H1137  1  0.749885  0.427208  0.643038  1
  H  H1138  1  0.006693  0.427163  0.643009  1
  H  H1139  1  0.110864  0.566215  0.643040  1
  H  H1140  1  0.006611  0.566196  0.643019  1
  H  H1141  1  0.398104  0.101854  0.695724  1
  H  H1142  1  0.398176  0.000000  0.695704  1
  H  H1143  1  0.101674  -0.000000  0.695719  1
  H  H1144  1  -0.000000  0.898200  0.695698  1
  H  H1145  1  0.101769  0.898193  0.695707  1
  H  H1146  1  0.499965  0.898210  0.695697  1
  H  H1147  1  0.898091  0.101844  0.695724  1
  H  H1148  1  -0.000000  0.101835  0.695730  1
  H  H1149  1  0.898193  -0.000000  0.695709  1
  H  H1150  1  0.499880  0.101821  0.695733  1
  H  H1151  1  0.601669  0.000000  0.695725  1
  H  H1152  1  0.601747  0.898175  0.695703  1
