# generated using pymatgen
data_Si81(HO41)4
_symmetry_space_group_name_H-M   'P 1'
_cell_length_a   26.79739289
_cell_length_b   12.91472158
_cell_length_c   84.16792135
_cell_angle_alpha   90.00000000
_cell_angle_beta   90.00000000
_cell_angle_gamma   90.00000000
_symmetry_Int_Tables_number   1
_chemical_formula_structural   Si81(HO41)4
_chemical_formula_sum   'Si324 H16 O656'
_cell_volume   29128.9073
_cell_formula_units_Z   4
loop_
 _symmetry_equiv_pos_site_id
 _symmetry_equiv_pos_as_xyz
  1  'x, y, z'
loop_
 _atom_site_type_symbol
 _atom_site_label
 _atom_site_symmetry_multiplicity
 _atom_site_fract_x
 _atom_site_fract_y
 _atom_site_fract_z
 _atom_site_occupancy
  O  O1  1  0.171724  0.500053  0.100463  1
  O  O2  1  0.238131  0.641926  0.100580  1
  O  O3  1  0.238139  0.358148  0.100579  1
  O  O4  1  0.141931  0.692338  0.095403  1
  O  O5  1  0.084214  0.807742  0.077032  1
  O  O6  1  0.141925  0.307726  0.095407  1
  O  O7  1  0.084223  0.192347  0.077032  1
  O  O8  1  0.301754  0.500060  0.101739  1
  O  O9  1  0.047822  0.669080  0.096306  1
  O  O10  1  0.081400  0.831009  0.106992  1
  O  O11  1  0.047819  0.331024  0.096303  1
  O  O12  1  0.081397  0.169065  0.106992  1
  O  O13  1  0.663692  0.326880  0.092956  1
  O  O14  1  0.591908  0.673224  0.070099  1
  O  O15  1  0.408055  0.326877  0.070098  1
  O  O16  1  0.591910  0.326887  0.070100  1
  O  O17  1  0.408058  0.673220  0.070099  1
  O  O18  1  0.432226  -0.000000  0.100646  1
  O  O19  1  0.567754  -0.000000  0.100646  1
  O  O20  1  0.336288  0.673212  0.092958  1
  O  O21  1  0.499993  0.863371  0.101133  1
  O  O22  1  0.663690  0.673210  0.092954  1
  O  O23  1  0.499989  0.136730  0.101132  1
  O  O24  1  0.411607  0.799751  0.094084  1
  O  O25  1  0.588377  0.799770  0.094082  1
  O  O26  1  0.588370  0.200333  0.094081  1
  O  O27  1  0.411603  0.200322  0.094083  1
  O  O28  1  0.421072  0.602930  0.097098  1
  O  O29  1  0.578903  0.602942  0.097096  1
  O  O30  1  0.578906  0.397163  0.097097  1
  O  O31  1  0.421074  0.397158  0.097099  1
  O  O32  1  0.336294  0.326848  0.092953  1
  O  O33  1  0.499991  0.500037  0.101079  1
  O  O34  1  0.828252  0.500038  0.100459  1
  O  O35  1  0.761848  0.358167  0.100583  1
  O  O36  1  0.761839  0.641923  0.100580  1
  O  O37  1  0.915759  0.192357  0.077031  1
  O  O38  1  0.858053  0.307741  0.095402  1
  O  O39  1  0.915757  0.807740  0.077031  1
  O  O40  1  0.858055  0.692353  0.095403  1
  O  O41  1  0.698226  0.500043  0.101736  1
  O  O42  1  0.918587  0.169079  0.106992  1
  O  O43  1  0.952158  0.331013  0.096303  1
  O  O44  1  0.918581  0.831010  0.106992  1
  O  O45  1  0.952155  0.669080  0.096304  1
  O  O46  1  -0.000000  0.500045  0.100376  1
  O  O47  1  0.068343  0.000000  0.176892  1
  O  O48  1  0.328267  -0.000000  0.259644  1
  O  O49  1  0.171713  0.499984  0.143985  1
  O  O50  1  0.173029  0.368628  0.122215  1
  O  O51  1  0.067966  0.141940  0.198041  1
  O  O52  1  0.261829  0.858169  0.259761  1
  O  O53  1  0.238143  0.358171  0.143881  1
  O  O54  1  0.067925  0.858152  0.198037  1
  O  O55  1  0.238108  0.641940  0.143823  1
  O  O56  1  0.261829  0.141963  0.259762  1
  O  O57  1  0.084219  0.192368  0.167407  1
  O  O58  1  0.141933  0.307788  0.149037  1
  O  O59  1  0.084226  0.807739  0.167411  1
  O  O60  1  0.141918  0.692390  0.149043  1
  O  O61  1  0.091917  0.173239  0.229289  1
  O  O62  1  0.163692  0.826889  0.252142  1
  O  O63  1  0.091913  0.826879  0.229288  1
  O  O64  1  0.163697  0.173236  0.252142  1
  O  O65  1  0.064339  -0.000000  0.218295  1
  O  O66  1  0.198218  0.000000  0.260921  1
  O  O67  1  0.301754  0.500063  0.142710  1
  O  O68  1  0.068605  -0.000000  0.122222  1
  O  O69  1  0.067747  0.500055  0.259837  1
  O  O70  1  0.088372  0.299784  0.253268  1
  O  O71  1  0.088375  0.700331  0.253269  1
  O  O72  1  0.078900  0.102941  0.256285  1
  O  O73  1  0.078896  0.897165  0.256285  1
  O  O74  1  0.081395  0.169088  0.137451  1
  O  O75  1  0.047822  0.331010  0.148138  1
  O  O76  1  0.081394  0.831021  0.137446  1
  O  O77  1  0.047812  0.669063  0.148138  1
  O  O78  1  0.304450  0.359133  0.122220  1
  O  O79  1  0.304430  0.640966  0.122222  1
  O  O80  1  0.173185  0.631516  0.122228  1
  O  O81  1  0.431634  0.500056  0.226735  1
  O  O82  1  0.568340  0.500067  0.226735  1
  O  O83  1  0.499986  0.631518  0.226298  1
  O  O84  1  0.566223  0.136738  0.122218  1
  O  O85  1  0.499990  0.368612  0.226302  1
  O  O86  1  0.432011  0.641955  0.205588  1
  O  O87  1  0.567967  0.358174  0.205588  1
  O  O88  1  0.432014  0.358170  0.205588  1
  O  O89  1  0.567960  0.641967  0.205587  1
  O  O90  1  0.641920  0.192393  0.254584  1
  O  O91  1  0.415747  0.692369  0.236217  1
  O  O92  1  0.358048  0.807763  0.254588  1
  O  O93  1  0.584225  0.307765  0.236215  1
  O  O94  1  0.641931  0.807797  0.254590  1
  O  O95  1  0.415756  0.307759  0.236218  1
  O  O96  1  0.358047  0.192363  0.254588  1
  O  O97  1  0.584219  0.692391  0.236220  1
  O  O98  1  0.408066  0.673231  0.174339  1
  O  O99  1  0.591910  0.326892  0.174339  1
  O  O100  1  0.408066  0.326877  0.174341  1
  O  O101  1  0.591915  0.673241  0.174337  1
  O  O102  1  0.435644  0.500051  0.185334  1
  O  O103  1  0.564335  0.500059  0.185331  1
  O  O104  1  0.499988  0.640983  0.184478  1
  O  O105  1  0.499993  0.359150  0.184480  1
  O  O106  1  0.567753  -0.000000  0.143795  1
  O  O107  1  0.432227  -0.000000  0.143795  1
  O  O108  1  0.499994  0.863387  0.143310  1
  O  O109  1  0.499989  0.136732  0.143307  1
  O  O110  1  0.588375  0.799796  0.150360  1
  O  O111  1  0.411613  0.799793  0.150361  1
  O  O112  1  0.411604  0.200320  0.150359  1
  O  O113  1  0.588363  0.200342  0.150359  1
  O  O114  1  0.578899  0.602949  0.147344  1
  O  O115  1  0.421080  0.602934  0.147344  1
  O  O116  1  0.421078  0.397175  0.147345  1
  O  O117  1  0.578899  0.397189  0.147346  1
  O  O118  1  0.547817  0.169074  0.255488  1
  O  O119  1  0.418580  0.669079  0.266181  1
  O  O120  1  0.452155  0.831045  0.255488  1
  O  O121  1  0.581398  0.331027  0.266182  1
  O  O122  1  0.547821  0.831034  0.255489  1
  O  O123  1  0.418582  0.331034  0.266182  1
  O  O124  1  0.452155  0.169079  0.255489  1
  O  O125  1  0.581395  0.669090  0.266178  1
  O  O126  1  0.433588  0.500039  0.122219  1
  O  O127  1  0.499992  0.500067  0.143362  1
  O  O128  1  0.336266  0.673233  0.151489  1
  O  O129  1  0.499983  0.000000  0.259561  1
  O  O130  1  0.663701  0.673229  0.151487  1
  O  O131  1  0.663693  0.326895  0.151487  1
  O  O132  1  0.336284  0.326881  0.151490  1
  O  O133  1  0.566393  0.500058  0.122218  1
  O  O134  1  0.566230  0.863384  0.122218  1
  O  O135  1  0.433759  0.863377  0.122219  1
  O  O136  1  0.433752  0.136725  0.122219  1
  O  O137  1  0.828264  0.500060  0.143983  1
  O  O138  1  0.671711  0.000000  0.259641  1
  O  O139  1  0.931642  0.000000  0.176894  1
  O  O140  1  0.826843  0.368602  0.122222  1
  O  O141  1  0.761830  0.641949  0.143866  1
  O  O142  1  0.738104  0.141943  0.259808  1
  O  O143  1  0.932014  0.858168  0.198041  1
  O  O144  1  0.738148  0.858174  0.259746  1
  O  O145  1  0.761862  0.358177  0.143840  1
  O  O146  1  0.932014  0.141936  0.198040  1
  O  O147  1  0.858050  0.692350  0.149038  1
  O  O148  1  0.915763  0.807759  0.167410  1
  O  O149  1  0.858052  0.307737  0.149042  1
  O  O150  1  0.915752  0.192360  0.167411  1
  O  O151  1  0.826918  0.631481  0.122213  1
  O  O152  1  0.836272  0.173236  0.252138  1
  O  O153  1  0.908071  0.826882  0.229287  1
  O  O154  1  0.836287  0.826883  0.252139  1
  O  O155  1  0.908070  0.173235  0.229288  1
  O  O156  1  0.698211  0.500050  0.142707  1
  O  O157  1  0.801757  -0.000000  0.260917  1
  O  O158  1  0.935644  0.000000  0.218294  1
  O  O159  1  -0.000000  -0.000000  0.260268  1
  O  O160  1  0.932232  0.500067  0.259837  1
  O  O161  1  -0.000000  0.868590  0.177339  1
  O  O162  1  -0.000000  0.859137  0.219150  1
  O  O163  1  0.911610  0.299780  0.253270  1
  O  O164  1  0.911609  0.700341  0.253271  1
  O  O165  1  0.921079  0.102943  0.256284  1
  O  O166  1  0.921074  0.897176  0.256284  1
  O  O167  1  0.952153  0.669075  0.148139  1
  O  O168  1  0.918587  0.831018  0.137448  1
  O  O169  1  0.952156  0.331030  0.148138  1
  O  O170  1  0.918580  0.169085  0.137447  1
  O  O171  1  -0.000000  0.500046  0.144066  1
  O  O172  1  -0.000000  0.368545  0.122221  1
  O  O173  1  0.695543  0.640968  0.122215  1
  O  O174  1  0.000000  0.631554  0.122220  1
  O  O175  1  -0.000000  0.131489  0.177327  1
  O  O176  1  0.695550  0.359136  0.122220  1
  O  O177  1  0.931380  0.000000  0.122221  1
  O  O178  1  -0.000000  0.363392  0.260324  1
  O  O179  1  0.000000  0.868546  0.122220  1
  O  O180  1  -0.000000  0.636725  0.260322  1
  O  O181  1  -0.000000  0.131546  0.122223  1
  O  O182  1  0.000000  0.140964  0.219150  1
  O  O183  1  0.328255  -0.000000  0.303168  1
  O  O184  1  0.171724  0.500053  0.418838  1
  O  O185  1  0.068335  0.000000  0.385922  1
  O  O186  1  0.261844  0.141945  0.303049  1
  O  O187  1  0.238131  0.641926  0.418955  1
  O  O188  1  0.067961  0.858162  0.364775  1
  O  O189  1  0.238139  0.358148  0.418954  1
  O  O190  1  0.261841  0.858172  0.303050  1
  O  O191  1  0.067960  0.141927  0.364777  1
  O  O192  1  0.141931  0.692338  0.413779  1
  O  O193  1  0.084214  0.807742  0.395407  1
  O  O194  1  0.141925  0.307726  0.413782  1
  O  O195  1  0.084223  0.192347  0.395407  1
  O  O196  1  0.163696  0.173228  0.310674  1
  O  O197  1  0.091915  0.826879  0.333528  1
  O  O198  1  0.163696  0.826890  0.310674  1
  O  O199  1  0.091914  0.173221  0.333529  1
  O  O200  1  0.198223  0.000000  0.301894  1
  O  O201  1  0.301754  0.500060  0.420115  1
  O  O202  1  0.064335  0.000000  0.344520  1
  O  O203  1  0.067745  0.500055  0.302982  1
  O  O204  1  0.088370  0.299772  0.309548  1
  O  O205  1  0.088375  0.700334  0.309547  1
  O  O206  1  0.078903  0.102942  0.306532  1
  O  O207  1  0.078902  0.897164  0.306532  1
  O  O208  1  0.047822  0.669080  0.414682  1
  O  O209  1  0.081400  0.831009  0.425367  1
  O  O210  1  0.047819  0.331024  0.414679  1
  O  O211  1  0.081397  0.169065  0.425368  1
  O  O212  1  0.066390  -0.000000  0.281409  1
  O  O213  1  0.326920  0.868624  0.281413  1
  O  O214  1  0.326917  0.131500  0.281414  1
  O  O215  1  0.066219  0.363383  0.281410  1
  O  O216  1  0.195542  0.140984  0.281411  1
  O  O217  1  0.195541  0.859147  0.281410  1
  O  O218  1  0.066223  0.636718  0.281410  1
  O  O219  1  0.568327  0.500055  0.336082  1
  O  O220  1  0.431628  0.500048  0.336079  1
  O  O221  1  0.663692  0.326880  0.411331  1
  O  O222  1  0.499990  0.368561  0.281405  1
  O  O223  1  0.499984  0.631494  0.336528  1
  O  O224  1  0.499986  0.368613  0.336530  1
  O  O225  1  0.567960  0.641936  0.357227  1
  O  O226  1  0.432048  0.358153  0.357227  1
  O  O227  1  0.567966  0.358163  0.357229  1
  O  O228  1  0.432050  0.641936  0.357227  1
  O  O229  1  0.358052  0.192367  0.308225  1
  O  O230  1  0.584209  0.692352  0.326596  1
  O  O231  1  0.641919  0.807734  0.308221  1
  O  O232  1  0.415755  0.307740  0.326596  1
  O  O233  1  0.358049  0.807748  0.308224  1
  O  O234  1  0.584209  0.307755  0.326596  1
  O  O235  1  0.641923  0.192364  0.308222  1
  O  O236  1  0.415754  0.692352  0.326595  1
  O  O237  1  0.591908  0.673224  0.388474  1
  O  O238  1  0.408055  0.326877  0.388473  1
  O  O239  1  0.591910  0.326887  0.388475  1
  O  O240  1  0.408058  0.673220  0.388475  1
  O  O241  1  0.564329  0.500057  0.377481  1
  O  O242  1  0.435634  0.500051  0.377484  1
  O  O243  1  0.499990  0.640966  0.378339  1
  O  O244  1  0.499991  0.359128  0.378341  1
  O  O245  1  0.432226  -0.000000  0.419021  1
  O  O246  1  0.567754  -0.000000  0.419021  1
  O  O247  1  0.336288  0.673212  0.411333  1
  O  O248  1  0.499993  0.863371  0.419509  1
  O  O249  1  0.663690  0.673210  0.411329  1
  O  O250  1  0.499989  0.136730  0.419508  1
  O  O251  1  0.411607  0.799751  0.412459  1
  O  O252  1  0.588377  0.799770  0.412457  1
  O  O253  1  0.588370  0.200333  0.412456  1
  O  O254  1  0.411603  0.200322  0.412459  1
  O  O255  1  0.421072  0.602930  0.415474  1
  O  O256  1  0.578903  0.602942  0.415471  1
  O  O257  1  0.578906  0.397163  0.415472  1
  O  O258  1  0.421074  0.397158  0.415474  1
  O  O259  1  0.452159  0.169071  0.307324  1
  O  O260  1  0.581397  0.669077  0.296636  1
  O  O261  1  0.547820  0.831023  0.307324  1
  O  O262  1  0.418581  0.331039  0.296637  1
  O  O263  1  0.452160  0.831021  0.307326  1
  O  O264  1  0.581401  0.331028  0.296637  1
  O  O265  1  0.547826  0.169081  0.307324  1
  O  O266  1  0.418584  0.669079  0.296637  1
  O  O267  1  0.336294  0.326848  0.411329  1
  O  O268  1  0.499991  0.500037  0.419454  1
  O  O269  1  0.499988  0.631560  0.281407  1
  O  O270  1  0.431374  0.500055  0.281407  1
  O  O271  1  0.568608  0.500055  0.281406  1
  O  O272  1  0.499988  0.000000  0.303252  1
  O  O273  1  0.499990  0.131558  0.281408  1
  O  O274  1  0.499982  0.868551  0.281408  1
  O  O275  1  0.931643  0.000000  0.385919  1
  O  O276  1  0.828252  0.500038  0.418835  1
  O  O277  1  0.671728  -0.000000  0.303163  1
  O  O278  1  0.673206  0.131526  0.281400  1
  O  O279  1  0.932018  0.141939  0.364775  1
  O  O280  1  0.761848  0.358167  0.418958  1
  O  O281  1  0.738134  0.858163  0.303049  1
  O  O282  1  0.932013  0.858160  0.364774  1
  O  O283  1  0.738128  0.141942  0.303046  1
  O  O284  1  0.761839  0.641923  0.418955  1
  O  O285  1  0.915759  0.192357  0.395406  1
  O  O286  1  0.858053  0.307741  0.413778  1
  O  O287  1  0.915757  0.807740  0.395406  1
  O  O288  1  0.858055  0.692353  0.413779  1
  O  O289  1  0.908062  0.173225  0.333527  1
  O  O290  1  0.933585  -0.000000  0.281408  1
  O  O291  1  0.836289  0.826869  0.310674  1
  O  O292  1  0.908056  0.826886  0.333528  1
  O  O293  1  0.836278  0.173222  0.310669  1
  O  O294  1  0.933756  0.636730  0.281409  1
  O  O295  1  0.935641  0.000000  0.344518  1
  O  O296  1  0.698226  0.500043  0.420111  1
  O  O297  1  0.801752  0.000000  0.301888  1
  O  O298  1  0.804437  0.140975  0.281406  1
  O  O299  1  -0.000000  0.859133  0.343664  1
  O  O300  1  0.932227  0.500060  0.302983  1
  O  O301  1  0.933759  0.363390  0.281409  1
  O  O302  1  -0.000000  0.636728  0.302497  1
  O  O303  1  0.911602  0.299783  0.309548  1
  O  O304  1  0.911602  0.700322  0.309546  1
  O  O305  1  0.921075  0.102945  0.306531  1
  O  O306  1  0.921072  0.897177  0.306530  1
  O  O307  1  0.918587  0.169079  0.425367  1
  O  O308  1  0.952158  0.331013  0.414679  1
  O  O309  1  0.918581  0.831010  0.425367  1
  O  O310  1  0.952155  0.669080  0.414679  1
  O  O311  1  -0.000000  0.140969  0.343665  1
  O  O312  1  0.000000  0.500045  0.418752  1
  O  O313  1  -0.000000  0.363383  0.302496  1
  O  O314  1  -0.000000  -0.000000  0.302550  1
  O  O315  1  -0.000000  0.131485  0.385486  1
  O  O316  1  0.000000  0.868606  0.385487  1
  O  O317  1  0.673031  0.868645  0.281414  1
  O  O318  1  0.804451  0.859143  0.281409  1
  O  O319  1  0.068343  -0.000000  0.495267  1
  O  O320  1  0.328267  0.000000  0.578020  1
  O  O321  1  0.171713  0.499984  0.462360  1
  O  O322  1  0.173029  0.368628  0.440590  1
  O  O323  1  0.067966  0.141940  0.516416  1
  O  O324  1  0.261829  0.858169  0.578137  1
  O  O325  1  0.238143  0.358171  0.462257  1
  O  O326  1  0.067925  0.858152  0.516413  1
  O  O327  1  0.238108  0.641940  0.462198  1
  O  O328  1  0.261829  0.141963  0.578137  1
  O  O329  1  0.084219  0.192368  0.485782  1
  O  O330  1  0.141933  0.307788  0.467413  1
  O  O331  1  0.084226  0.807739  0.485787  1
  O  O332  1  0.141918  0.692390  0.467418  1
  O  O333  1  0.091917  0.173239  0.547665  1
  O  O334  1  0.163692  0.826889  0.570518  1
  O  O335  1  0.091913  0.826879  0.547664  1
  O  O336  1  0.163697  0.173236  0.570518  1
  O  O337  1  0.064339  0.000000  0.536671  1
  O  O338  1  0.198218  0.000000  0.579297  1
  O  O339  1  0.301754  0.500063  0.461086  1
  O  O340  1  0.068605  0.000000  0.440597  1
  O  O341  1  0.067747  0.500055  0.578213  1
  O  O342  1  0.088372  0.299784  0.571644  1
  O  O343  1  0.088375  0.700331  0.571644  1
  O  O344  1  0.078900  0.102941  0.574660  1
  O  O345  1  0.078896  0.897165  0.574660  1
  O  O346  1  0.081395  0.169088  0.455826  1
  O  O347  1  0.047822  0.331010  0.466514  1
  O  O348  1  0.081394  0.831021  0.455822  1
  O  O349  1  0.047812  0.669063  0.466513  1
  O  O350  1  0.304450  0.359133  0.440595  1
  O  O351  1  0.304430  0.640966  0.440597  1
  O  O352  1  0.173185  0.631516  0.440604  1
  O  O353  1  0.431634  0.500056  0.545110  1
  O  O354  1  0.568340  0.500067  0.545110  1
  O  O355  1  0.499986  0.631518  0.544674  1
  O  O356  1  0.566223  0.136738  0.440593  1
  O  O357  1  0.499990  0.368612  0.544678  1
  O  O358  1  0.432011  0.641955  0.523963  1
  O  O359  1  0.567967  0.358174  0.523963  1
  O  O360  1  0.432014  0.358170  0.523963  1
  O  O361  1  0.567960  0.641967  0.523963  1
  O  O362  1  0.641920  0.192393  0.572959  1
  O  O363  1  0.415747  0.692369  0.554593  1
  O  O364  1  0.358048  0.807763  0.572964  1
  O  O365  1  0.584225  0.307765  0.554590  1
  O  O366  1  0.641931  0.807797  0.572966  1
  O  O367  1  0.415756  0.307759  0.554593  1
  O  O368  1  0.358047  0.192363  0.572964  1
  O  O369  1  0.584219  0.692391  0.554595  1
  O  O370  1  0.408066  0.673231  0.492715  1
  O  O371  1  0.591910  0.326892  0.492715  1
  O  O372  1  0.408066  0.326877  0.492717  1
  O  O373  1  0.591915  0.673241  0.492712  1
  O  O374  1  0.435644  0.500051  0.503710  1
  O  O375  1  0.564335  0.500059  0.503707  1
  O  O376  1  0.499988  0.640983  0.502853  1
  O  O377  1  0.499993  0.359150  0.502855  1
  O  O378  1  0.567753  0.000000  0.462170  1
  O  O379  1  0.432227  0.000000  0.462170  1
  O  O380  1  0.499994  0.863387  0.461685  1
  O  O381  1  0.499989  0.136732  0.461683  1
  O  O382  1  0.588375  0.799796  0.468736  1
  O  O383  1  0.411613  0.799793  0.468736  1
  O  O384  1  0.411604  0.200320  0.468735  1
  O  O385  1  0.588363  0.200342  0.468735  1
  O  O386  1  0.578899  0.602949  0.465720  1
  O  O387  1  0.421080  0.602934  0.465720  1
  O  O388  1  0.421078  0.397175  0.465720  1
  O  O389  1  0.578899  0.397189  0.465721  1
  O  O390  1  0.547817  0.169074  0.573863  1
  O  O391  1  0.418580  0.669079  0.584556  1
  O  O392  1  0.452155  0.831045  0.573863  1
  O  O393  1  0.581398  0.331027  0.584558  1
  O  O394  1  0.547821  0.831034  0.573864  1
  O  O395  1  0.418582  0.331034  0.584557  1
  O  O396  1  0.452155  0.169079  0.573864  1
  O  O397  1  0.581395  0.669090  0.584553  1
  O  O398  1  0.433588  0.500039  0.440595  1
  O  O399  1  0.499992  0.500067  0.461737  1
  O  O400  1  0.336266  0.673233  0.469864  1
  O  O401  1  0.499983  -0.000000  0.577936  1
  O  O402  1  0.663701  0.673229  0.469862  1
  O  O403  1  0.663693  0.326895  0.469863  1
  O  O404  1  0.336284  0.326881  0.469866  1
  O  O405  1  0.566393  0.500058  0.440594  1
  O  O406  1  0.566230  0.863384  0.440594  1
  O  O407  1  0.433759  0.863377  0.440594  1
  O  O408  1  0.433752  0.136725  0.440594  1
  O  O409  1  0.828264  0.500060  0.462359  1
  O  O410  1  0.671711  0.000000  0.578017  1
  O  O411  1  0.931642  -0.000000  0.495269  1
  O  O412  1  0.826843  0.368602  0.440597  1
  O  O413  1  0.761830  0.641949  0.462241  1
  O  O414  1  0.738104  0.141943  0.578183  1
  O  O415  1  0.932014  0.858168  0.516416  1
  O  O416  1  0.738148  0.858174  0.578122  1
  O  O417  1  0.761862  0.358177  0.462216  1
  O  O418  1  0.932014  0.141936  0.516415  1
  O  O419  1  0.858050  0.692350  0.467413  1
  O  O420  1  0.915763  0.807759  0.485786  1
  O  O421  1  0.858052  0.307737  0.467417  1
  O  O422  1  0.915752  0.192360  0.485786  1
  O  O423  1  0.826918  0.631481  0.440589  1
  O  O424  1  0.836272  0.173236  0.570514  1
  O  O425  1  0.908071  0.826882  0.547662  1
  O  O426  1  0.836287  0.826883  0.570514  1
  O  O427  1  0.908070  0.173235  0.547663  1
  O  O428  1  0.698211  0.500050  0.461083  1
  O  O429  1  0.801757  0.000000  0.579292  1
  O  O430  1  0.935644  0.000000  0.536670  1
  O  O431  1  0.000000  0.000000  0.578643  1
  O  O432  1  0.932232  0.500067  0.578213  1
  O  O433  1  0.000000  0.868590  0.495715  1
  O  O434  1  0.000000  0.859137  0.537526  1
  O  O435  1  0.911610  0.299780  0.571645  1
  O  O436  1  0.911609  0.700341  0.571646  1
  O  O437  1  0.921079  0.102943  0.574660  1
  O  O438  1  0.921074  0.897176  0.574660  1
  O  O439  1  0.952153  0.669075  0.466515  1
  O  O440  1  0.918587  0.831018  0.455823  1
  O  O441  1  0.952156  0.331030  0.466513  1
  O  O442  1  0.918580  0.169085  0.455823  1
  O  O443  1  0.000000  0.500046  0.462442  1
  O  O444  1  0.000000  0.368545  0.440596  1
  O  O445  1  0.695543  0.640968  0.440591  1
  O  O446  1  0.000000  0.631554  0.440596  1
  O  O447  1  0.000000  0.131489  0.495703  1
  O  O448  1  0.695550  0.359136  0.440595  1
  O  O449  1  0.931380  0.000000  0.440597  1
  O  O450  1  0.000000  0.363392  0.578700  1
  O  O451  1  0.000000  0.868546  0.440596  1
  O  O452  1  -0.000000  0.636725  0.578697  1
  O  O453  1  0.000000  0.131546  0.440598  1
  O  O454  1  -0.000000  0.140964  0.537525  1
  O  O455  1  0.328255  -0.000000  0.621544  1
  O  O456  1  0.171724  0.500053  0.737214  1
  O  O457  1  0.068335  0.000000  0.704297  1
  O  O458  1  0.261844  0.141945  0.621425  1
  O  O459  1  0.238131  0.641926  0.737330  1
  O  O460  1  0.067961  0.858162  0.683151  1
  O  O461  1  0.238139  0.358148  0.737330  1
  O  O462  1  0.261841  0.858172  0.621425  1
  O  O463  1  0.067960  0.141927  0.683152  1
  O  O464  1  0.141931  0.692338  0.732154  1
  O  O465  1  0.084214  0.807742  0.713783  1
  O  O466  1  0.141925  0.307726  0.732158  1
  O  O467  1  0.084223  0.192347  0.713782  1
  O  O468  1  0.163696  0.173228  0.629049  1
  O  O469  1  0.091915  0.826879  0.651903  1
  O  O470  1  0.163696  0.826890  0.629049  1
  O  O471  1  0.091914  0.173221  0.651905  1
  O  O472  1  0.198223  0.000000  0.620270  1
  O  O473  1  0.301754  0.500060  0.738490  1
  O  O474  1  0.064335  -0.000000  0.662895  1
  O  O475  1  0.067745  0.500055  0.621357  1
  O  O476  1  0.088370  0.299772  0.627924  1
  O  O477  1  0.088375  0.700334  0.627923  1
  O  O478  1  0.078903  0.102942  0.624908  1
  O  O479  1  0.078902  0.897164  0.624908  1
  O  O480  1  0.047822  0.669080  0.733057  1
  O  O481  1  0.081400  0.831009  0.743742  1
  O  O482  1  0.047819  0.331024  0.733054  1
  O  O483  1  0.081397  0.169065  0.743743  1
  O  O484  1  0.066390  0.000000  0.599785  1
  O  O485  1  0.326920  0.868624  0.599789  1
  O  O486  1  0.326917  0.131500  0.599789  1
  O  O487  1  0.066219  0.363383  0.599785  1
  O  O488  1  0.195542  0.140984  0.599786  1
  O  O489  1  0.195541  0.859147  0.599786  1
  O  O490  1  0.066223  0.636718  0.599786  1
  O  O491  1  0.568327  0.500055  0.654458  1
  O  O492  1  0.431628  0.500048  0.654454  1
  O  O493  1  0.663692  0.326880  0.729707  1
  O  O494  1  0.499990  0.368561  0.599780  1
  O  O495  1  0.499984  0.631494  0.654903  1
  O  O496  1  0.499986  0.368613  0.654905  1
  O  O497  1  0.567960  0.641936  0.675603  1
  O  O498  1  0.432048  0.358153  0.675602  1
  O  O499  1  0.567966  0.358163  0.675604  1
  O  O500  1  0.432050  0.641936  0.675602  1
  O  O501  1  0.358052  0.192367  0.626600  1
  O  O502  1  0.584209  0.692352  0.644971  1
  O  O503  1  0.641919  0.807734  0.626596  1
  O  O504  1  0.415755  0.307740  0.644972  1
  O  O505  1  0.358049  0.807748  0.626600  1
  O  O506  1  0.584209  0.307755  0.644972  1
  O  O507  1  0.641923  0.192364  0.626598  1
  O  O508  1  0.415754  0.692352  0.644970  1
  O  O509  1  0.591908  0.673224  0.706849  1
  O  O510  1  0.408055  0.326877  0.706849  1
  O  O511  1  0.591910  0.326887  0.706850  1
  O  O512  1  0.408058  0.673220  0.706850  1
  O  O513  1  0.564329  0.500057  0.695857  1
  O  O514  1  0.435634  0.500051  0.695859  1
  O  O515  1  0.499990  0.640966  0.696714  1
  O  O516  1  0.499991  0.359128  0.696716  1
  O  O517  1  0.432226  -0.000000  0.737397  1
  O  O518  1  0.567754  -0.000000  0.737397  1
  O  O519  1  0.336288  0.673212  0.729709  1
  O  O520  1  0.499993  0.863371  0.737884  1
  O  O521  1  0.663690  0.673210  0.729705  1
  O  O522  1  0.499989  0.136730  0.737883  1
  O  O523  1  0.411607  0.799751  0.730835  1
  O  O524  1  0.588377  0.799770  0.730833  1
  O  O525  1  0.588370  0.200333  0.730831  1
  O  O526  1  0.411603  0.200322  0.730834  1
  O  O527  1  0.421072  0.602930  0.733849  1
  O  O528  1  0.578903  0.602942  0.733847  1
  O  O529  1  0.578906  0.397163  0.733848  1
  O  O530  1  0.421074  0.397158  0.733850  1
  O  O531  1  0.452159  0.169071  0.625699  1
  O  O532  1  0.581397  0.669077  0.615012  1
  O  O533  1  0.547820  0.831023  0.625700  1
  O  O534  1  0.418581  0.331039  0.615012  1
  O  O535  1  0.452160  0.831021  0.625701  1
  O  O536  1  0.581401  0.331028  0.615013  1
  O  O537  1  0.547826  0.169081  0.625699  1
  O  O538  1  0.418584  0.669079  0.615012  1
  O  O539  1  0.336294  0.326848  0.729704  1
  O  O540  1  0.499991  0.500037  0.737830  1
  O  O541  1  0.499988  0.631560  0.599782  1
  O  O542  1  0.431374  0.500055  0.599782  1
  O  O543  1  0.568608  0.500055  0.599781  1
  O  O544  1  0.499988  0.000000  0.621627  1
  O  O545  1  0.499990  0.131558  0.599783  1
  O  O546  1  0.499982  0.868551  0.599784  1
  O  O547  1  0.931643  0.000000  0.704295  1
  O  O548  1  0.828252  0.500038  0.737210  1
  O  O549  1  0.671728  -0.000000  0.621538  1
  O  O550  1  0.673206  0.131526  0.599776  1
  O  O551  1  0.932018  0.141939  0.683151  1
  O  O552  1  0.761848  0.358167  0.737334  1
  O  O553  1  0.738134  0.858163  0.621425  1
  O  O554  1  0.932013  0.858160  0.683150  1
  O  O555  1  0.738128  0.141942  0.621422  1
  O  O556  1  0.761839  0.641923  0.737331  1
  O  O557  1  0.915759  0.192357  0.713782  1
  O  O558  1  0.858053  0.307741  0.732153  1
  O  O559  1  0.915757  0.807740  0.713782  1
  O  O560  1  0.858055  0.692353  0.732154  1
  O  O561  1  0.908062  0.173225  0.651902  1
  O  O562  1  0.933585  -0.000000  0.599783  1
  O  O563  1  0.836289  0.826869  0.629049  1
  O  O564  1  0.908056  0.826886  0.651903  1
  O  O565  1  0.836278  0.173222  0.629045  1
  O  O566  1  0.933756  0.636730  0.599784  1
  O  O567  1  0.935641  0.000000  0.662894  1
  O  O568  1  0.698226  0.500043  0.738487  1
  O  O569  1  0.801752  -0.000000  0.620263  1
  O  O570  1  0.804437  0.140975  0.599781  1
  O  O571  1  0.000000  0.859133  0.662039  1
  O  O572  1  0.932227  0.500060  0.621359  1
  O  O573  1  0.933759  0.363390  0.599784  1
  O  O574  1  -0.000000  0.636728  0.620872  1
  O  O575  1  0.911602  0.299783  0.627923  1
  O  O576  1  0.911602  0.700322  0.627921  1
  O  O577  1  0.921075  0.102945  0.624906  1
  O  O578  1  0.921072  0.897177  0.624905  1
  O  O579  1  0.918587  0.169079  0.743742  1
  O  O580  1  0.952158  0.331013  0.733054  1
  O  O581  1  0.918581  0.831010  0.743743  1
  O  O582  1  0.952155  0.669080  0.733055  1
  O  O583  1  -0.000000  0.140969  0.662041  1
  O  O584  1  -0.000000  0.500045  0.737127  1
  O  O585  1  -0.000000  0.363383  0.620871  1
  O  O586  1  0.000000  -0.000000  0.620925  1
  O  O587  1  -0.000000  0.131485  0.703861  1
  O  O588  1  -0.000000  0.868606  0.703862  1
  O  O589  1  0.673031  0.868645  0.599790  1
  O  O590  1  0.804451  0.859143  0.599784  1
  O  O591  1  0.171713  0.499984  0.780736  1
  O  O592  1  0.173029  0.368628  0.758966  1
  O  O593  1  0.238143  0.358171  0.780632  1
  O  O594  1  0.238108  0.641940  0.780574  1
  O  O595  1  0.084219  0.192368  0.804158  1
  O  O596  1  0.141933  0.307788  0.785788  1
  O  O597  1  0.084226  0.807739  0.804162  1
  O  O598  1  0.141918  0.692390  0.785793  1
  O  O599  1  0.301754  0.500063  0.779461  1
  O  O600  1  0.068605  0.000000  0.758973  1
  O  O601  1  0.081395  0.169088  0.774201  1
  O  O602  1  0.047822  0.331010  0.784889  1
  O  O603  1  0.081394  0.831021  0.774197  1
  O  O604  1  0.047812  0.669063  0.784888  1
  O  O605  1  0.304450  0.359133  0.758971  1
  O  O606  1  0.304430  0.640966  0.758973  1
  O  O607  1  0.173185  0.631516  0.758979  1
  O  O608  1  0.566223  0.136738  0.758969  1
  O  O609  1  0.408066  0.673231  0.811090  1
  O  O610  1  0.591910  0.326892  0.811090  1
  O  O611  1  0.408066  0.326877  0.811092  1
  O  O612  1  0.591915  0.673241  0.811087  1
  O  O613  1  0.567753  0.000000  0.780545  1
  O  O614  1  0.432227  0.000000  0.780546  1
  O  O615  1  0.499994  0.863387  0.780061  1
  O  O616  1  0.499989  0.136732  0.780058  1
  O  O617  1  0.588375  0.799796  0.787111  1
  O  O618  1  0.411613  0.799793  0.787112  1
  O  O619  1  0.411604  0.200320  0.787110  1
  O  O620  1  0.588363  0.200342  0.787110  1
  O  O621  1  0.578899  0.602949  0.784095  1
  O  O622  1  0.421080  0.602934  0.784095  1
  O  O623  1  0.421078  0.397175  0.784096  1
  O  O624  1  0.578899  0.397189  0.784097  1
  O  O625  1  0.433588  0.500039  0.758970  1
  O  O626  1  0.499992  0.500067  0.780113  1
  O  O627  1  0.336266  0.673233  0.788240  1
  O  O628  1  0.663701  0.673229  0.788237  1
  O  O629  1  0.663693  0.326895  0.788238  1
  O  O630  1  0.336284  0.326881  0.788241  1
  O  O631  1  0.566393  0.500058  0.758969  1
  O  O632  1  0.566230  0.863384  0.758969  1
  O  O633  1  0.433759  0.863377  0.758969  1
  O  O634  1  0.433752  0.136725  0.758969  1
  O  O635  1  0.828264  0.500060  0.780734  1
  O  O636  1  0.826843  0.368602  0.758973  1
  O  O637  1  0.761830  0.641949  0.780617  1
  O  O638  1  0.761862  0.358177  0.780591  1
  O  O639  1  0.858050  0.692350  0.785788  1
  O  O640  1  0.915763  0.807759  0.804161  1
  O  O641  1  0.858052  0.307737  0.785793  1
  O  O642  1  0.915752  0.192360  0.804162  1
  O  O643  1  0.826918  0.631481  0.758964  1
  O  O644  1  0.698211  0.500050  0.779458  1
  O  O645  1  0.952153  0.669075  0.784890  1
  O  O646  1  0.918587  0.831018  0.774199  1
  O  O647  1  0.952156  0.331030  0.784888  1
  O  O648  1  0.918580  0.169085  0.774198  1
  O  O649  1  0.000000  0.500046  0.780817  1
  O  O650  1  0.000000  0.368545  0.758972  1
  O  O651  1  0.695543  0.640968  0.758966  1
  O  O652  1  -0.000000  0.631554  0.758971  1
  O  O653  1  0.695550  0.359136  0.758971  1
  O  O654  1  0.931380  0.000000  0.758972  1
  O  O655  1  0.000000  0.868546  0.758971  1
  O  O656  1  -0.000000  0.131546  0.758974  1
  Si  Si657  1  0.090469  0.250049  0.093413  1
  Si  Si658  1  0.090475  0.750039  0.093412  1
  Si  Si659  1  0.295410  0.380286  0.103909  1
  Si  Si660  1  0.180844  0.619193  0.103830  1
  Si  Si661  1  0.180842  0.380901  0.103822  1
  Si  Si662  1  0.295397  0.619824  0.103912  1
  Si  Si663  1  0.442536  0.500044  0.103927  1
  Si  Si664  1  0.557446  0.500048  0.103926  1
  Si  Si665  1  0.442485  0.880904  0.103909  1
  Si  Si666  1  0.557500  0.880917  0.103909  1
  Si  Si667  1  0.557496  0.119189  0.103909  1
  Si  Si668  1  0.442482  0.119180  0.103910  1
  Si  Si669  1  0.392829  0.691155  0.088104  1
  Si  Si670  1  0.607148  0.691169  0.088102  1
  Si  Si671  1  0.607149  0.308933  0.088103  1
  Si  Si672  1  0.392839  0.308922  0.088103  1
  Si  Si673  1  0.819140  0.380896  0.103827  1
  Si  Si674  1  0.819134  0.619187  0.103817  1
  Si  Si675  1  0.704580  0.380275  0.103911  1
  Si  Si676  1  0.704574  0.619811  0.103908  1
  Si  Si677  1  0.909507  0.250047  0.093412  1
  Si  Si678  1  0.909505  0.750047  0.093412  1
  Si  Si679  1  0.000000  0.381265  0.103657  1
  Si  Si680  1  0.000000  0.618831  0.103656  1
  Si  Si681  1  0.090488  0.250071  0.151027  1
  Si  Si682  1  0.057494  0.380915  0.263101  1
  Si  Si683  1  0.058296  0.881267  0.122219  1
  Si  Si684  1  0.057446  -0.000000  0.263117  1
  Si  Si685  1  0.090456  0.750055  0.151028  1
  Si  Si686  1  0.107149  0.191175  0.247293  1
  Si  Si687  1  0.057496  0.619199  0.263101  1
  Si  Si688  1  0.107147  0.808942  0.247291  1
  Si  Si689  1  0.057764  0.119217  0.179798  1
  Si  Si690  1  0.319128  0.880904  0.263018  1
  Si  Si691  1  0.180855  0.380863  0.140611  1
  Si  Si692  1  0.057775  0.880910  0.179798  1
  Si  Si693  1  0.180813  0.619138  0.140624  1
  Si  Si694  1  0.319129  0.119215  0.263018  1
  Si  Si695  1  0.057499  0.119817  0.216275  1
  Si  Si696  1  0.204566  0.880302  0.263101  1
  Si  Si697  1  0.295408  0.380297  0.140532  1
  Si  Si698  1  0.057498  0.880283  0.216272  1
  Si  Si699  1  0.295381  0.619820  0.140529  1
  Si  Si700  1  0.204567  0.119817  0.263102  1
  Si  Si701  1  0.058297  0.118836  0.122223  1
  Si  Si702  1  0.442536  0.500054  0.140512  1
  Si  Si703  1  0.557447  0.500067  0.140511  1
  Si  Si704  1  0.442208  0.619205  0.223829  1
  Si  Si705  1  0.557766  0.380923  0.223828  1
  Si  Si706  1  0.442212  0.380913  0.223829  1
  Si  Si707  1  0.557763  0.619217  0.223830  1
  Si  Si708  1  0.442480  0.619815  0.187355  1
  Si  Si709  1  0.557502  0.380296  0.187356  1
  Si  Si710  1  0.442484  0.380290  0.187356  1
  Si  Si711  1  0.557498  0.619826  0.187353  1
  Si  Si712  1  0.499989  0.881275  0.262843  1
  Si  Si713  1  0.499984  0.118838  0.262843  1
  Si  Si714  1  0.557501  0.880927  0.140528  1
  Si  Si715  1  0.442487  0.880926  0.140528  1
  Si  Si716  1  0.442483  0.119198  0.140528  1
  Si  Si717  1  0.557495  0.119203  0.140527  1
  Si  Si718  1  0.607151  0.691183  0.156334  1
  Si  Si719  1  0.392830  0.691168  0.156334  1
  Si  Si720  1  0.392835  0.308931  0.156337  1
  Si  Si721  1  0.607145  0.308946  0.156336  1
  Si  Si722  1  0.590459  0.250076  0.252598  1
  Si  Si723  1  0.409504  0.750059  0.252602  1
  Si  Si724  1  0.590483  0.750082  0.252601  1
  Si  Si725  1  0.409506  0.250061  0.252601  1
  Si  Si726  1  0.942481  0.380929  0.263100  1
  Si  Si727  1  0.892836  0.808937  0.247290  1
  Si  Si728  1  0.941683  0.118830  0.122220  1
  Si  Si729  1  0.942536  0.000000  0.263115  1
  Si  Si730  1  0.892832  0.191172  0.247292  1
  Si  Si731  1  0.909508  0.250049  0.151028  1
  Si  Si732  1  0.909505  0.750054  0.151028  1
  Si  Si733  1  0.942484  0.619202  0.263100  1
  Si  Si734  1  0.819130  0.619209  0.140609  1
  Si  Si735  1  0.680814  0.119151  0.263001  1
  Si  Si736  1  0.942216  0.880903  0.179801  1
  Si  Si737  1  0.680857  0.880869  0.263019  1
  Si  Si738  1  0.819150  0.380911  0.140618  1
  Si  Si739  1  0.942208  0.119194  0.179798  1
  Si  Si740  1  0.704566  0.619809  0.140525  1
  Si  Si741  1  0.795381  0.119822  0.263100  1
  Si  Si742  1  0.942484  0.880282  0.216273  1
  Si  Si743  1  0.795410  0.880296  0.263098  1
  Si  Si744  1  0.704585  0.380294  0.140529  1
  Si  Si745  1  0.942481  0.119820  0.216273  1
  Si  Si746  1  0.941681  0.881262  0.122219  1
  Si  Si747  1  0.000000  0.381264  0.140785  1
  Si  Si748  1  -0.000000  0.618825  0.140784  1
  Si  Si749  1  0.057445  -0.000000  0.299702  1
  Si  Si750  1  0.057497  0.619191  0.299719  1
  Si  Si751  1  0.057496  0.119809  0.346544  1
  Si  Si752  1  0.057496  0.380919  0.299719  1
  Si  Si753  1  0.090469  0.250049  0.411789  1
  Si  Si754  1  0.204577  0.880286  0.299719  1
  Si  Si755  1  0.090475  0.750039  0.411787  1
  Si  Si756  1  0.295410  0.380286  0.422285  1
  Si  Si757  1  0.057495  0.880280  0.346543  1
  Si  Si758  1  0.107152  0.808935  0.315525  1
  Si  Si759  1  0.107149  0.191168  0.315525  1
  Si  Si760  1  0.319137  0.119199  0.299810  1
  Si  Si761  1  0.180844  0.619193  0.422206  1
  Si  Si762  1  0.057761  0.880895  0.383016  1
  Si  Si763  1  0.180842  0.380901  0.422197  1
  Si  Si764  1  0.319134  0.880915  0.299809  1
  Si  Si765  1  0.057764  0.119191  0.383018  1
  Si  Si766  1  0.204579  0.119830  0.299719  1
  Si  Si767  1  0.295397  0.619824  0.422288  1
  Si  Si768  1  0.442536  0.500044  0.422303  1
  Si  Si769  1  0.590472  0.250055  0.310217  1
  Si  Si770  1  0.557446  0.500048  0.422301  1
  Si  Si771  1  0.557761  0.619202  0.338987  1
  Si  Si772  1  0.442204  0.380895  0.338987  1
  Si  Si773  1  0.557765  0.380908  0.338988  1
  Si  Si774  1  0.442204  0.619203  0.338986  1
  Si  Si775  1  0.557495  0.619826  0.375459  1
  Si  Si776  1  0.442486  0.380286  0.375461  1
  Si  Si777  1  0.557496  0.380285  0.375460  1
  Si  Si778  1  0.442485  0.619812  0.375460  1
  Si  Si779  1  0.409503  0.750061  0.310214  1
  Si  Si780  1  0.590469  0.750055  0.310215  1
  Si  Si781  1  0.499988  0.881276  0.299973  1
  Si  Si782  1  0.409507  0.250045  0.310214  1
  Si  Si783  1  0.558297  0.618842  0.281406  1
  Si  Si784  1  0.499994  0.118836  0.299972  1
  Si  Si785  1  0.442485  0.880904  0.422285  1
  Si  Si786  1  0.557500  0.880917  0.422285  1
  Si  Si787  1  0.557496  0.119189  0.422285  1
  Si  Si788  1  0.442482  0.119180  0.422286  1
  Si  Si789  1  0.392829  0.691155  0.406480  1
  Si  Si790  1  0.607148  0.691169  0.406477  1
  Si  Si791  1  0.607149  0.308933  0.406478  1
  Si  Si792  1  0.392839  0.308922  0.406478  1
  Si  Si793  1  0.441682  0.381277  0.281409  1
  Si  Si794  1  0.441680  0.618837  0.281409  1
  Si  Si795  1  0.558298  0.381273  0.281410  1
  Si  Si796  1  0.942535  0.000000  0.299701  1
  Si  Si797  1  0.942209  0.119192  0.383016  1
  Si  Si798  1  0.819140  0.380896  0.422202  1
  Si  Si799  1  0.680840  0.880914  0.299807  1
  Si  Si800  1  0.942208  0.880896  0.383015  1
  Si  Si801  1  0.680841  0.119211  0.299795  1
  Si  Si802  1  0.819134  0.619187  0.422193  1
  Si  Si803  1  0.942481  0.119813  0.346542  1
  Si  Si804  1  0.704580  0.380275  0.422286  1
  Si  Si805  1  0.795405  0.880304  0.299718  1
  Si  Si806  1  0.942479  0.880285  0.346542  1
  Si  Si807  1  0.795394  0.119834  0.299714  1
  Si  Si808  1  0.704574  0.619811  0.422283  1
  Si  Si809  1  0.942482  0.380922  0.299718  1
  Si  Si810  1  0.942485  0.619194  0.299717  1
  Si  Si811  1  0.892823  0.191168  0.315523  1
  Si  Si812  1  0.892835  0.808935  0.315523  1
  Si  Si813  1  0.909507  0.250047  0.411788  1
  Si  Si814  1  0.909505  0.750047  0.411788  1
  Si  Si815  1  0.000000  0.381265  0.422032  1
  Si  Si816  1  0.000000  0.618831  0.422031  1
  Si  Si817  1  0.090488  0.250071  0.469402  1
  Si  Si818  1  0.057494  0.380915  0.581476  1
  Si  Si819  1  0.058296  0.881267  0.440594  1
  Si  Si820  1  0.057446  0.000000  0.581492  1
  Si  Si821  1  0.090456  0.750055  0.469403  1
  Si  Si822  1  0.107149  0.191175  0.565668  1
  Si  Si823  1  0.057496  0.619199  0.581476  1
  Si  Si824  1  0.107147  0.808942  0.565667  1
  Si  Si825  1  0.057764  0.119217  0.498173  1
  Si  Si826  1  0.319128  0.880904  0.581393  1
  Si  Si827  1  0.180855  0.380863  0.458987  1
  Si  Si828  1  0.057775  0.880910  0.498173  1
  Si  Si829  1  0.180813  0.619138  0.458999  1
  Si  Si830  1  0.319129  0.119215  0.581394  1
  Si  Si831  1  0.057499  0.119817  0.534650  1
  Si  Si832  1  0.204566  0.880302  0.581476  1
  Si  Si833  1  0.295408  0.380297  0.458907  1
  Si  Si834  1  0.057498  0.880283  0.534647  1
  Si  Si835  1  0.295381  0.619820  0.458904  1
  Si  Si836  1  0.204567  0.119817  0.581477  1
  Si  Si837  1  0.058297  0.118836  0.440598  1
  Si  Si838  1  0.442536  0.500054  0.458888  1
  Si  Si839  1  0.557447  0.500067  0.458887  1
  Si  Si840  1  0.442208  0.619205  0.542205  1
  Si  Si841  1  0.557766  0.380923  0.542203  1
  Si  Si842  1  0.442212  0.380913  0.542204  1
  Si  Si843  1  0.557763  0.619217  0.542205  1
  Si  Si844  1  0.442480  0.619815  0.505731  1
  Si  Si845  1  0.557502  0.380296  0.505731  1
  Si  Si846  1  0.442484  0.380290  0.505731  1
  Si  Si847  1  0.557498  0.619826  0.505729  1
  Si  Si848  1  0.499989  0.881275  0.581219  1
  Si  Si849  1  0.499984  0.118838  0.581219  1
  Si  Si850  1  0.557501  0.880927  0.458903  1
  Si  Si851  1  0.442487  0.880926  0.458903  1
  Si  Si852  1  0.442483  0.119198  0.458903  1
  Si  Si853  1  0.557495  0.119203  0.458903  1
  Si  Si854  1  0.607151  0.691183  0.474710  1
  Si  Si855  1  0.392830  0.691168  0.474710  1
  Si  Si856  1  0.392835  0.308931  0.474713  1
  Si  Si857  1  0.607145  0.308946  0.474711  1
  Si  Si858  1  0.590459  0.250076  0.570973  1
  Si  Si859  1  0.409504  0.750059  0.570977  1
  Si  Si860  1  0.590483  0.750082  0.570977  1
  Si  Si861  1  0.409506  0.250061  0.570976  1
  Si  Si862  1  0.942481  0.380929  0.581475  1
  Si  Si863  1  0.892836  0.808937  0.565665  1
  Si  Si864  1  0.941683  0.118830  0.440596  1
  Si  Si865  1  0.942536  0.000000  0.581491  1
  Si  Si866  1  0.892832  0.191172  0.565668  1
  Si  Si867  1  0.909508  0.250049  0.469404  1
  Si  Si868  1  0.909505  0.750054  0.469404  1
  Si  Si869  1  0.942484  0.619202  0.581475  1
  Si  Si870  1  0.819130  0.619209  0.458984  1
  Si  Si871  1  0.680814  0.119151  0.581377  1
  Si  Si872  1  0.942216  0.880903  0.498176  1
  Si  Si873  1  0.680857  0.880869  0.581394  1
  Si  Si874  1  0.819150  0.380911  0.458994  1
  Si  Si875  1  0.942208  0.119194  0.498174  1
  Si  Si876  1  0.704566  0.619809  0.458901  1
  Si  Si877  1  0.795381  0.119822  0.581475  1
  Si  Si878  1  0.942484  0.880282  0.534649  1
  Si  Si879  1  0.795410  0.880296  0.581473  1
  Si  Si880  1  0.704585  0.380294  0.458904  1
  Si  Si881  1  0.942481  0.119820  0.534648  1
  Si  Si882  1  0.941681  0.881262  0.440594  1
  Si  Si883  1  0.000000  0.381264  0.459161  1
  Si  Si884  1  0.000000  0.618825  0.459160  1
  Si  Si885  1  0.057445  0.000000  0.618077  1
  Si  Si886  1  0.057497  0.619191  0.618094  1
  Si  Si887  1  0.057496  0.119809  0.664919  1
  Si  Si888  1  0.057496  0.380919  0.618094  1
  Si  Si889  1  0.090469  0.250049  0.730164  1
  Si  Si890  1  0.204577  0.880286  0.618094  1
  Si  Si891  1  0.090475  0.750039  0.730163  1
  Si  Si892  1  0.295410  0.380286  0.740660  1
  Si  Si893  1  0.057495  0.880280  0.664918  1
  Si  Si894  1  0.107152  0.808935  0.633900  1
  Si  Si895  1  0.107149  0.191168  0.633901  1
  Si  Si896  1  0.319137  0.119199  0.618185  1
  Si  Si897  1  0.180844  0.619193  0.740581  1
  Si  Si898  1  0.057761  0.880895  0.701392  1
  Si  Si899  1  0.180842  0.380901  0.740573  1
  Si  Si900  1  0.319134  0.880915  0.618184  1
  Si  Si901  1  0.057764  0.119191  0.701393  1
  Si  Si902  1  0.204579  0.119830  0.618094  1
  Si  Si903  1  0.295397  0.619824  0.740663  1
  Si  Si904  1  0.442536  0.500044  0.740678  1
  Si  Si905  1  0.590472  0.250055  0.628592  1
  Si  Si906  1  0.557446  0.500048  0.740677  1
  Si  Si907  1  0.557761  0.619202  0.657362  1
  Si  Si908  1  0.442204  0.380895  0.657362  1
  Si  Si909  1  0.557765  0.380908  0.657364  1
  Si  Si910  1  0.442204  0.619203  0.657361  1
  Si  Si911  1  0.557495  0.619826  0.693835  1
  Si  Si912  1  0.442486  0.380286  0.693836  1
  Si  Si913  1  0.557496  0.380285  0.693836  1
  Si  Si914  1  0.442485  0.619812  0.693836  1
  Si  Si915  1  0.409503  0.750061  0.628589  1
  Si  Si916  1  0.590469  0.750055  0.628591  1
  Si  Si917  1  0.499988  0.881276  0.618348  1
  Si  Si918  1  0.409507  0.250045  0.628589  1
  Si  Si919  1  0.558297  0.618842  0.599782  1
  Si  Si920  1  0.499994  0.118836  0.618347  1
  Si  Si921  1  0.442485  0.880904  0.740660  1
  Si  Si922  1  0.557500  0.880917  0.740660  1
  Si  Si923  1  0.557496  0.119189  0.740660  1
  Si  Si924  1  0.442482  0.119180  0.740661  1
  Si  Si925  1  0.392829  0.691155  0.724855  1
  Si  Si926  1  0.607148  0.691169  0.724853  1
  Si  Si927  1  0.607149  0.308933  0.724854  1
  Si  Si928  1  0.392839  0.308922  0.724854  1
  Si  Si929  1  0.441682  0.381277  0.599784  1
  Si  Si930  1  0.441680  0.618837  0.599784  1
  Si  Si931  1  0.558298  0.381273  0.599785  1
  Si  Si932  1  0.942535  -0.000000  0.618076  1
  Si  Si933  1  0.942209  0.119192  0.701392  1
  Si  Si934  1  0.819140  0.380896  0.740577  1
  Si  Si935  1  0.680840  0.880914  0.618183  1
  Si  Si936  1  0.942208  0.880896  0.701391  1
  Si  Si937  1  0.680841  0.119211  0.618170  1
  Si  Si938  1  0.819134  0.619187  0.740568  1
  Si  Si939  1  0.942481  0.119813  0.664917  1
  Si  Si940  1  0.704580  0.380275  0.740662  1
  Si  Si941  1  0.795405  0.880304  0.618094  1
  Si  Si942  1  0.942479  0.880285  0.664917  1
  Si  Si943  1  0.795394  0.119834  0.618089  1
  Si  Si944  1  0.704574  0.619811  0.740658  1
  Si  Si945  1  0.942482  0.380922  0.618093  1
  Si  Si946  1  0.942485  0.619194  0.618092  1
  Si  Si947  1  0.892823  0.191168  0.633898  1
  Si  Si948  1  0.892835  0.808935  0.633899  1
  Si  Si949  1  0.909507  0.250047  0.730163  1
  Si  Si950  1  0.909505  0.750047  0.730163  1
  Si  Si951  1  -0.000000  0.381265  0.740408  1
  Si  Si952  1  0.000000  0.618831  0.740407  1
  Si  Si953  1  0.090488  0.250071  0.787778  1
  Si  Si954  1  0.058296  0.881267  0.758969  1
  Si  Si955  1  0.090456  0.750055  0.787779  1
  Si  Si956  1  0.180855  0.380863  0.777362  1
  Si  Si957  1  0.180813  0.619138  0.777374  1
  Si  Si958  1  0.295408  0.380297  0.777282  1
  Si  Si959  1  0.295381  0.619820  0.777280  1
  Si  Si960  1  0.058297  0.118836  0.758974  1
  Si  Si961  1  0.442536  0.500054  0.777263  1
  Si  Si962  1  0.557447  0.500067  0.777262  1
  Si  Si963  1  0.557501  0.880927  0.777279  1
  Si  Si964  1  0.442487  0.880926  0.777279  1
  Si  Si965  1  0.442483  0.119198  0.777279  1
  Si  Si966  1  0.557495  0.119203  0.777278  1
  Si  Si967  1  0.607151  0.691183  0.793085  1
  Si  Si968  1  0.392830  0.691168  0.793085  1
  Si  Si969  1  0.392835  0.308931  0.793088  1
  Si  Si970  1  0.607145  0.308946  0.793087  1
  Si  Si971  1  0.941683  0.118830  0.758971  1
  Si  Si972  1  0.909508  0.250049  0.787779  1
  Si  Si973  1  0.909505  0.750054  0.787779  1
  Si  Si974  1  0.819130  0.619209  0.777360  1
  Si  Si975  1  0.819150  0.380911  0.777369  1
  Si  Si976  1  0.704566  0.619809  0.777276  1
  Si  Si977  1  0.704585  0.380294  0.777280  1
  Si  Si978  1  0.941681  0.881262  0.758970  1
  Si  Si979  1  0.000000  0.381264  0.777536  1
  Si  Si980  1  -0.000000  0.618825  0.777535  1
  H  H981  1  0.084214  0.807742  0.066339  1
  H  H982  1  0.084223  0.192347  0.066339  1
  H  H983  1  0.591908  0.673224  0.059406  1
  H  H984  1  0.408055  0.326877  0.059405  1
  H  H985  1  0.591910  0.326887  0.059407  1
  H  H986  1  0.408058  0.673220  0.059406  1
  H  H987  1  0.915759  0.192357  0.066338  1
  H  H988  1  0.915757  0.807740  0.066338  1
  H  H989  1  0.084219  0.192368  0.814851  1
  H  H990  1  0.084226  0.807739  0.814855  1
  H  H991  1  0.408066  0.673231  0.821783  1
  H  H992  1  0.591910  0.326892  0.821783  1
  H  H993  1  0.408066  0.326877  0.821785  1
  H  H994  1  0.591915  0.673241  0.821780  1
  H  H995  1  0.915763  0.807759  0.814854  1
  H  H996  1  0.915752  0.192360  0.814854  1
