# generated using pymatgen
data_Si84H2O169
_symmetry_space_group_name_H-M   'P 1'
_cell_length_a   12.80769475
_cell_length_b   12.63554297
_cell_length_c   147.33508161
_cell_angle_alpha   90.00000000
_cell_angle_beta   90.00000000
_cell_angle_gamma   90.00000000
_symmetry_Int_Tables_number   1
_chemical_formula_structural   Si84H2O169
_chemical_formula_sum   'Si336 H8 O676'
_cell_volume   23843.5570578
_cell_formula_units_Z   4
loop_
 _symmetry_equiv_pos_site_id
 _symmetry_equiv_pos_as_xyz
  1  'x, y, z'
loop_
 _atom_site_type_symbol
 _atom_site_label
 _atom_site_symmetry_multiplicity
 _atom_site_fract_x
 _atom_site_fract_y
 _atom_site_fract_z
 _atom_site_occupancy
  O  O1  1  0.858237  0.329283  0.040045  1
  O  O2  1  0.858235  0.670862  0.040045  1
  O  O3  1  0.299656  0.142415  0.066587  1
  O  O4  1  0.299656  0.857732  0.066587  1
  O  O5  1  0.421806  -0.000000  0.072691  1
  O  O6  1  0.344427  0.137877  0.083072  1
  O  O7  1  0.344429  0.862272  0.083072  1
  O  O8  1  0.487376  0.201899  0.072586  1
  O  O9  1  0.487377  0.798253  0.072586  1
  O  O10  1  0.176889  -0.000000  0.060673  1
  O  O11  1  0.111764  0.140589  0.071472  1
  O  O12  1  0.111765  0.859557  0.071472  1
  O  O13  1  0.151234  0.199471  0.055126  1
  O  O14  1  0.151234  0.800677  0.055126  1
  O  O15  1  0.037727  0.000000  0.081887  1
  O  O16  1  0.971460  0.200826  0.082649  1
  O  O17  1  0.971462  0.799322  0.082649  1
  O  O18  1  0.300452  0.500082  0.066368  1
  O  O19  1  0.342001  0.500075  0.082949  1
  O  O20  1  0.462179  0.399498  0.072218  1
  O  O21  1  0.462184  0.600656  0.072219  1
  O  O22  1  0.109683  0.500072  0.070749  1
  O  O23  1  0.169479  0.398424  0.056723  1
  O  O24  1  0.169471  0.601725  0.056723  1
  O  O25  1  0.996694  0.398600  0.081889  1
  O  O26  1  0.996695  0.601550  0.081889  1
  O  O27  1  0.835699  0.325818  0.074716  1
  O  O28  1  0.835699  0.674336  0.074716  1
  O  O29  1  0.567650  0.326974  0.084813  1
  O  O30  1  0.567652  0.673182  0.084814  1
  O  O31  1  0.647664  0.332568  0.069054  1
  O  O32  1  0.647666  0.667587  0.069054  1
  O  O33  1  0.995717  0.329355  0.052223  1
  O  O34  1  0.995714  0.670800  0.052223  1
  O  O35  1  0.141695  0.329284  0.040624  1
  O  O36  1  0.141695  0.670865  0.040624  1
  O  O37  1  0.759246  0.500078  0.069383  1
  O  O38  1  0.806649  0.359952  0.057723  1
  O  O39  1  0.806648  0.640202  0.057723  1
  O  O40  1  0.900633  0.500077  0.048615  1
  O  O41  1  0.658608  0.142426  0.134551  1
  O  O42  1  0.158635  0.142452  0.088027  1
  O  O43  1  0.158637  0.857696  0.088027  1
  O  O44  1  0.658598  0.857669  0.134552  1
  O  O45  1  0.780496  -0.000000  0.128450  1
  O  O46  1  0.280528  0.000000  0.094129  1
  O  O47  1  0.811998  0.202824  0.123566  1
  O  O48  1  0.312017  0.202856  0.099012  1
  O  O49  1  0.312021  0.797295  0.099013  1
  O  O50  1  0.811986  0.797262  0.123566  1
  O  O51  1  0.790987  0.399315  0.125326  1
  O  O52  1  0.291010  0.399352  0.097253  1
  O  O53  1  0.291014  0.600803  0.097253  1
  O  O54  1  0.790991  0.600767  0.125325  1
  O  O55  1  0.354219  0.329294  0.130600  1
  O  O56  1  0.854242  0.329303  0.091979  1
  O  O57  1  0.854247  0.670830  0.091979  1
  O  O58  1  0.354217  0.670813  0.130600  1
  O  O59  1  0.835261  0.329889  0.109605  1
  O  O60  1  0.335265  0.329899  0.112974  1
  O  O61  1  0.335258  0.670232  0.112974  1
  O  O62  1  0.835272  0.670222  0.109605  1
  O  O63  1  0.971612  0.331749  0.122494  1
  O  O64  1  0.471632  0.331777  0.100085  1
  O  O65  1  0.471635  0.668371  0.100086  1
  O  O66  1  0.971613  0.668352  0.122495  1
  O  O67  1  0.316497  0.500058  0.122162  1
  O  O68  1  0.816518  0.500063  0.100417  1
  O  O69  1  0.176462  0.361093  0.123440  1
  O  O70  1  0.676480  0.361109  0.099137  1
  O  O71  1  0.676485  0.639030  0.099138  1
  O  O72  1  0.176459  0.639014  0.123441  1
  O  O73  1  0.054055  0.500047  0.129006  1
  O  O74  1  0.554074  0.500075  0.093573  1
  O  O75  1  0.154380  0.500079  0.087644  1
  O  O76  1  0.654352  0.500051  0.134934  1
  O  O77  1  0.799626  0.142382  0.155991  1
  O  O78  1  0.799617  0.857700  0.155992  1
  O  O79  1  0.921772  0.000000  0.149888  1
  O  O80  1  0.844399  0.137843  0.139506  1
  O  O81  1  0.844390  0.862238  0.139507  1
  O  O82  1  0.987351  0.201859  0.149992  1
  O  O83  1  0.987338  0.798214  0.149993  1
  O  O84  1  0.676855  -0.000000  0.161905  1
  O  O85  1  0.611736  0.140563  0.151106  1
  O  O86  1  0.611726  0.859532  0.151107  1
  O  O87  1  0.651206  0.199441  0.167453  1
  O  O88  1  0.651197  0.800644  0.167453  1
  O  O89  1  0.537693  0.000000  0.140691  1
  O  O90  1  0.471435  0.200805  0.139929  1
  O  O91  1  0.471422  0.799299  0.139930  1
  O  O92  1  0.800423  0.500030  0.156211  1
  O  O93  1  0.841972  0.500041  0.139629  1
  O  O94  1  0.962154  0.399455  0.150360  1
  O  O95  1  0.962152  0.600614  0.150361  1
  O  O96  1  0.609658  0.500046  0.151829  1
  O  O97  1  0.669442  0.398390  0.165856  1
  O  O98  1  0.669454  0.601694  0.165855  1
  O  O99  1  0.496666  0.398577  0.140689  1
  O  O100  1  0.496667  0.601527  0.140690  1
  O  O101  1  0.335673  0.325788  0.147863  1
  O  O102  1  0.335663  0.674301  0.147864  1
  O  O103  1  0.067635  0.326937  0.137765  1
  O  O104  1  0.067633  0.673145  0.137766  1
  O  O105  1  0.147639  0.332528  0.153525  1
  O  O106  1  0.147633  0.667550  0.153526  1
  O  O107  1  0.495686  0.329314  0.170356  1
  O  O108  1  0.495690  0.670753  0.170356  1
  O  O109  1  0.641674  0.329245  0.181955  1
  O  O110  1  0.641674  0.670825  0.181955  1
  O  O111  1  0.259214  0.500041  0.153196  1
  O  O112  1  0.306620  0.359912  0.164856  1
  O  O113  1  0.306622  0.640163  0.164856  1
  O  O114  1  0.400604  0.500033  0.173964  1
  O  O115  1  0.200265  0.142373  0.208497  1
  O  O116  1  0.200271  0.857692  0.208497  1
  O  O117  1  0.078119  0.000000  0.214601  1
  O  O118  1  0.155496  0.137831  0.224982  1
  O  O119  1  0.155503  0.862226  0.224982  1
  O  O120  1  0.012544  0.201851  0.214496  1
  O  O121  1  0.012551  0.798207  0.214496  1
  O  O122  1  0.323034  -0.000000  0.202583  1
  O  O123  1  0.388157  0.140553  0.213382  1
  O  O124  1  0.388165  0.859522  0.213382  1
  O  O125  1  0.348683  0.199433  0.197036  1
  O  O126  1  0.348689  0.800637  0.197035  1
  O  O127  1  0.462201  0.000000  0.223797  1
  O  O128  1  0.528461  0.200792  0.224559  1
  O  O129  1  0.528472  0.799287  0.224558  1
  O  O130  1  0.199471  0.500028  0.208278  1
  O  O131  1  0.157922  0.500032  0.224860  1
  O  O132  1  0.037740  0.399448  0.214129  1
  O  O133  1  0.037741  0.600608  0.214128  1
  O  O134  1  0.390237  0.500041  0.212659  1
  O  O135  1  0.330446  0.398382  0.198633  1
  O  O136  1  0.330440  0.601685  0.198633  1
  O  O137  1  0.503230  0.398564  0.223799  1
  O  O138  1  0.503230  0.601514  0.223799  1
  O  O139  1  0.664225  0.325777  0.216625  1
  O  O140  1  0.664229  0.674288  0.216625  1
  O  O141  1  0.932262  0.326929  0.226723  1
  O  O142  1  0.932263  0.673135  0.226723  1
  O  O143  1  0.852256  0.332519  0.210963  1
  O  O144  1  0.852260  0.667541  0.210963  1
  O  O145  1  0.504201  0.329311  0.194133  1
  O  O146  1  0.504201  0.670751  0.194133  1
  O  O147  1  0.358212  0.329246  0.182534  1
  O  O148  1  0.358217  0.670824  0.182534  1
  O  O149  1  0.740680  0.500030  0.211292  1
  O  O150  1  0.693270  0.359905  0.199633  1
  O  O151  1  0.693271  0.640157  0.199633  1
  O  O152  1  0.599285  0.500031  0.190525  1
  O  O153  1  0.841295  0.142442  0.276462  1
  O  O154  1  0.341289  0.142412  0.229937  1
  O  O155  1  0.341298  0.857655  0.229937  1
  O  O156  1  0.841296  0.857686  0.276461  1
  O  O157  1  0.719403  -0.000000  0.270360  1
  O  O158  1  0.219402  0.000000  0.236039  1
  O  O159  1  0.687911  0.202843  0.265476  1
  O  O160  1  0.187901  0.202808  0.240923  1
  O  O161  1  0.187915  0.797248  0.240922  1
  O  O162  1  0.687908  0.797281  0.265476  1
  O  O163  1  0.708916  0.399338  0.267236  1
  O  O164  1  0.208909  0.399298  0.239162  1
  O  O165  1  0.208909  0.600751  0.239163  1
  O  O166  1  0.708913  0.600789  0.267236  1
  O  O167  1  0.145688  0.329291  0.272510  1
  O  O168  1  0.645676  0.329280  0.233888  1
  O  O169  1  0.645683  0.670807  0.233888  1
  O  O170  1  0.145681  0.670815  0.272510  1
  O  O171  1  0.664644  0.329887  0.251515  1
  O  O172  1  0.164650  0.329876  0.254884  1
  O  O173  1  0.164642  0.670208  0.254884  1
  O  O174  1  0.664650  0.670219  0.251515  1
  O  O175  1  0.528292  0.331760  0.264404  1
  O  O176  1  0.028285  0.331734  0.241995  1
  O  O177  1  0.028289  0.668338  0.241994  1
  O  O178  1  0.528289  0.668359  0.264404  1
  O  O179  1  0.183406  0.500048  0.264072  1
  O  O180  1  0.683401  0.500046  0.242326  1
  O  O181  1  0.323446  0.361094  0.265351  1
  O  O182  1  0.823435  0.361082  0.241048  1
  O  O183  1  0.823440  0.639000  0.241048  1
  O  O184  1  0.323441  0.639015  0.265351  1
  O  O185  1  0.445850  0.500059  0.270916  1
  O  O186  1  0.945847  0.500035  0.235483  1
  O  O187  1  0.345545  0.500035  0.229554  1
  O  O188  1  0.845549  0.500066  0.276844  1
  O  O189  1  0.700275  0.142408  0.297902  1
  O  O190  1  0.700279  0.857725  0.297901  1
  O  O191  1  0.578127  0.000000  0.291798  1
  O  O192  1  0.655503  0.137865  0.281417  1
  O  O193  1  0.655505  0.862261  0.281416  1
  O  O194  1  0.512554  0.201886  0.291903  1
  O  O195  1  0.512557  0.798241  0.291902  1
  O  O196  1  0.823044  -0.000000  0.303815  1
  O  O197  1  0.888166  0.140584  0.293017  1
  O  O198  1  0.888169  0.859552  0.293016  1
  O  O199  1  0.848697  0.199466  0.309363  1
  O  O200  1  0.848699  0.800673  0.309363  1
  O  O201  1  0.962204  0.000000  0.282601  1
  O  O202  1  0.028469  0.200818  0.281840  1
  O  O203  1  0.028471  0.799315  0.281839  1
  O  O204  1  0.699478  0.500067  0.298121  1
  O  O205  1  0.657929  0.500060  0.281539  1
  O  O206  1  0.537750  0.399484  0.292270  1
  O  O207  1  0.537749  0.600643  0.292270  1
  O  O208  1  0.890247  0.500060  0.293739  1
  O  O209  1  0.830454  0.398419  0.307766  1
  O  O210  1  0.830458  0.601721  0.307765  1
  O  O211  1  0.003239  0.398593  0.282599  1
  O  O212  1  0.003232  0.601544  0.282600  1
  O  O213  1  0.164231  0.325809  0.289773  1
  O  O214  1  0.164232  0.674327  0.289773  1
  O  O215  1  0.432272  0.326959  0.279676  1
  O  O216  1  0.432273  0.673166  0.279675  1
  O  O217  1  0.352267  0.332557  0.295435  1
  O  O218  1  0.352268  0.667577  0.295435  1
  O  O219  1  0.004214  0.329349  0.312266  1
  O  O220  1  0.004215  0.670794  0.312265  1
  O  O221  1  0.858237  0.329283  0.323865  1
  O  O222  1  0.858235  0.670862  0.323864  1
  O  O223  1  0.240686  0.500068  0.295105  1
  O  O224  1  0.193282  0.359946  0.306765  1
  O  O225  1  0.193284  0.640196  0.306765  1
  O  O226  1  0.099299  0.500073  0.315873  1
  O  O227  1  0.299656  0.142415  0.350406  1
  O  O228  1  0.299656  0.857732  0.350407  1
  O  O229  1  0.421806  0.000000  0.356510  1
  O  O230  1  0.344427  0.137877  0.366891  1
  O  O231  1  0.344429  0.862272  0.366892  1
  O  O232  1  0.487376  0.201899  0.356405  1
  O  O233  1  0.487377  0.798253  0.356406  1
  O  O234  1  0.176889  0.000000  0.344493  1
  O  O235  1  0.111764  0.140589  0.355291  1
  O  O236  1  0.111765  0.859557  0.355292  1
  O  O237  1  0.151234  0.199471  0.338945  1
  O  O238  1  0.151234  0.800677  0.338945  1
  O  O239  1  0.037727  0.000000  0.365707  1
  O  O240  1  0.971460  0.200826  0.366468  1
  O  O241  1  0.971462  0.799322  0.366469  1
  O  O242  1  0.300452  0.500082  0.350187  1
  O  O243  1  0.342001  0.500075  0.366769  1
  O  O244  1  0.462179  0.399498  0.356038  1
  O  O245  1  0.462184  0.600656  0.356038  1
  O  O246  1  0.109683  0.500072  0.354569  1
  O  O247  1  0.169479  0.398424  0.340543  1
  O  O248  1  0.169471  0.601725  0.340542  1
  O  O249  1  0.996694  0.398600  0.365709  1
  O  O250  1  0.996695  0.601550  0.365708  1
  O  O251  1  0.835699  0.325818  0.358535  1
  O  O252  1  0.835699  0.674336  0.358535  1
  O  O253  1  0.567650  0.326974  0.368633  1
  O  O254  1  0.567652  0.673182  0.368633  1
  O  O255  1  0.647664  0.332568  0.352873  1
  O  O256  1  0.647666  0.667587  0.352874  1
  O  O257  1  0.995717  0.329355  0.336043  1
  O  O258  1  0.995714  0.670800  0.336042  1
  O  O259  1  0.141695  0.329284  0.324444  1
  O  O260  1  0.141695  0.670865  0.324443  1
  O  O261  1  0.759246  0.500078  0.353203  1
  O  O262  1  0.806649  0.359952  0.341543  1
  O  O263  1  0.806648  0.640202  0.341543  1
  O  O264  1  0.900633  0.500077  0.332435  1
  O  O265  1  0.658608  0.142426  0.418371  1
  O  O266  1  0.158635  0.142452  0.371846  1
  O  O267  1  0.158637  0.857696  0.371847  1
  O  O268  1  0.658598  0.857669  0.418371  1
  O  O269  1  0.780496  0.000000  0.412269  1
  O  O270  1  0.280528  0.000000  0.377948  1
  O  O271  1  0.811998  0.202824  0.407385  1
  O  O272  1  0.312017  0.202856  0.382832  1
  O  O273  1  0.312021  0.797295  0.382832  1
  O  O274  1  0.811986  0.797262  0.407386  1
  O  O275  1  0.790987  0.399315  0.409146  1
  O  O276  1  0.291010  0.399352  0.381072  1
  O  O277  1  0.291014  0.600803  0.381072  1
  O  O278  1  0.790991  0.600767  0.409145  1
  O  O279  1  0.354219  0.329294  0.414420  1
  O  O280  1  0.854242  0.329303  0.375798  1
  O  O281  1  0.854247  0.670830  0.375798  1
  O  O282  1  0.354217  0.670813  0.414420  1
  O  O283  1  0.835261  0.329889  0.393425  1
  O  O284  1  0.335265  0.329899  0.396793  1
  O  O285  1  0.335258  0.670232  0.396793  1
  O  O286  1  0.835272  0.670222  0.393425  1
  O  O287  1  0.971612  0.331749  0.406313  1
  O  O288  1  0.471632  0.331777  0.383904  1
  O  O289  1  0.471635  0.668371  0.383905  1
  O  O290  1  0.971613  0.668352  0.406315  1
  O  O291  1  0.316497  0.500058  0.405981  1
  O  O292  1  0.816518  0.500063  0.384236  1
  O  O293  1  0.176462  0.361093  0.407260  1
  O  O294  1  0.676480  0.361109  0.382957  1
  O  O295  1  0.676485  0.639030  0.382958  1
  O  O296  1  0.176459  0.639014  0.407261  1
  O  O297  1  0.054055  0.500047  0.412826  1
  O  O298  1  0.554074  0.500075  0.377392  1
  O  O299  1  0.154380  0.500079  0.371463  1
  O  O300  1  0.654352  0.500051  0.418754  1
  O  O301  1  0.799626  0.142382  0.439811  1
  O  O302  1  0.799617  0.857700  0.439811  1
  O  O303  1  0.921772  0.000000  0.433708  1
  O  O304  1  0.844399  0.137843  0.423326  1
  O  O305  1  0.844390  0.862238  0.423326  1
  O  O306  1  0.987351  0.201859  0.433812  1
  O  O307  1  0.987338  0.798214  0.433813  1
  O  O308  1  0.676855  0.000000  0.445725  1
  O  O309  1  0.611736  0.140563  0.434926  1
  O  O310  1  0.611726  0.859532  0.434926  1
  O  O311  1  0.651206  0.199441  0.451272  1
  O  O312  1  0.651197  0.800644  0.451273  1
  O  O313  1  0.537693  -0.000000  0.424510  1
  O  O314  1  0.471435  0.200805  0.423749  1
  O  O315  1  0.471422  0.799299  0.423750  1
  O  O316  1  0.800423  0.500030  0.440030  1
  O  O317  1  0.841972  0.500041  0.423448  1
  O  O318  1  0.962154  0.399455  0.434179  1
  O  O319  1  0.962152  0.600614  0.434180  1
  O  O320  1  0.609658  0.500046  0.435649  1
  O  O321  1  0.669442  0.398390  0.449675  1
  O  O322  1  0.669454  0.601694  0.449675  1
  O  O323  1  0.496666  0.398577  0.424509  1
  O  O324  1  0.496667  0.601527  0.424510  1
  O  O325  1  0.335673  0.325788  0.431683  1
  O  O326  1  0.335663  0.674301  0.431683  1
  O  O327  1  0.067635  0.326937  0.421585  1
  O  O328  1  0.067633  0.673145  0.421586  1
  O  O329  1  0.147639  0.332528  0.437344  1
  O  O330  1  0.147633  0.667550  0.437346  1
  O  O331  1  0.495686  0.329314  0.454175  1
  O  O332  1  0.495690  0.670753  0.454175  1
  O  O333  1  0.641674  0.329245  0.465774  1
  O  O334  1  0.641674  0.670825  0.465774  1
  O  O335  1  0.259214  0.500041  0.437016  1
  O  O336  1  0.306620  0.359912  0.448675  1
  O  O337  1  0.306622  0.640163  0.448675  1
  O  O338  1  0.400604  0.500033  0.457783  1
  O  O339  1  0.200265  0.142373  0.492317  1
  O  O340  1  0.200271  0.857692  0.492317  1
  O  O341  1  0.078119  0.000000  0.498420  1
  O  O342  1  0.155496  0.137831  0.508802  1
  O  O343  1  0.155503  0.862226  0.508801  1
  O  O344  1  0.012544  0.201851  0.498316  1
  O  O345  1  0.012551  0.798207  0.498315  1
  O  O346  1  0.323034  0.000000  0.486403  1
  O  O347  1  0.388157  0.140553  0.497202  1
  O  O348  1  0.388165  0.859522  0.497201  1
  O  O349  1  0.348683  0.199433  0.480855  1
  O  O350  1  0.348689  0.800637  0.480855  1
  O  O351  1  0.462201  0.000000  0.507617  1
  O  O352  1  0.528461  0.200792  0.508379  1
  O  O353  1  0.528472  0.799287  0.508378  1
  O  O354  1  0.199471  0.500028  0.492098  1
  O  O355  1  0.157922  0.500032  0.508679  1
  O  O356  1  0.037740  0.399448  0.497948  1
  O  O357  1  0.037741  0.600608  0.497948  1
  O  O358  1  0.390237  0.500041  0.496479  1
  O  O359  1  0.330446  0.398382  0.482453  1
  O  O360  1  0.330440  0.601685  0.482452  1
  O  O361  1  0.503230  0.398564  0.507618  1
  O  O362  1  0.503230  0.601514  0.507619  1
  O  O363  1  0.664225  0.325777  0.500445  1
  O  O364  1  0.664229  0.674288  0.500445  1
  O  O365  1  0.932262  0.326929  0.510543  1
  O  O366  1  0.932263  0.673135  0.510542  1
  O  O367  1  0.852256  0.332519  0.494783  1
  O  O368  1  0.852260  0.667541  0.494782  1
  O  O369  1  0.504201  0.329311  0.477952  1
  O  O370  1  0.504201  0.670751  0.477953  1
  O  O371  1  0.358212  0.329246  0.466354  1
  O  O372  1  0.358217  0.670824  0.466354  1
  O  O373  1  0.740680  0.500030  0.495112  1
  O  O374  1  0.693270  0.359905  0.483452  1
  O  O375  1  0.693271  0.640157  0.483452  1
  O  O376  1  0.599285  0.500031  0.474345  1
  O  O377  1  0.841295  0.142442  0.560281  1
  O  O378  1  0.341289  0.142412  0.513757  1
  O  O379  1  0.341298  0.857655  0.513756  1
  O  O380  1  0.841296  0.857686  0.560281  1
  O  O381  1  0.719403  0.000000  0.554179  1
  O  O382  1  0.219402  -0.000000  0.519858  1
  O  O383  1  0.687911  0.202843  0.549296  1
  O  O384  1  0.187901  0.202808  0.524742  1
  O  O385  1  0.187915  0.797248  0.524742  1
  O  O386  1  0.687908  0.797281  0.549295  1
  O  O387  1  0.708916  0.399338  0.551055  1
  O  O388  1  0.208909  0.399298  0.522982  1
  O  O389  1  0.208909  0.600751  0.522983  1
  O  O390  1  0.708913  0.600789  0.551055  1
  O  O391  1  0.145688  0.329291  0.556329  1
  O  O392  1  0.645676  0.329280  0.517708  1
  O  O393  1  0.645683  0.670807  0.517708  1
  O  O394  1  0.145681  0.670815  0.556329  1
  O  O395  1  0.664644  0.329887  0.535335  1
  O  O396  1  0.164650  0.329876  0.538703  1
  O  O397  1  0.164642  0.670208  0.538703  1
  O  O398  1  0.664650  0.670219  0.535334  1
  O  O399  1  0.528292  0.331760  0.548224  1
  O  O400  1  0.028285  0.331734  0.525814  1
  O  O401  1  0.028289  0.668338  0.525814  1
  O  O402  1  0.528289  0.668359  0.548223  1
  O  O403  1  0.183406  0.500048  0.547891  1
  O  O404  1  0.683401  0.500046  0.526146  1
  O  O405  1  0.323446  0.361094  0.549170  1
  O  O406  1  0.823435  0.361082  0.524867  1
  O  O407  1  0.823440  0.639000  0.524867  1
  O  O408  1  0.323441  0.639015  0.549170  1
  O  O409  1  0.445850  0.500059  0.554735  1
  O  O410  1  0.945847  0.500035  0.519302  1
  O  O411  1  0.345545  0.500035  0.513374  1
  O  O412  1  0.845549  0.500066  0.560664  1
  O  O413  1  0.700275  0.142408  0.581721  1
  O  O414  1  0.700279  0.857725  0.581721  1
  O  O415  1  0.578127  -0.000000  0.575618  1
  O  O416  1  0.655503  0.137865  0.565236  1
  O  O417  1  0.655505  0.862261  0.565236  1
  O  O418  1  0.512554  0.201886  0.575722  1
  O  O419  1  0.512557  0.798241  0.575722  1
  O  O420  1  0.823044  0.000000  0.587635  1
  O  O421  1  0.888166  0.140584  0.576836  1
  O  O422  1  0.888169  0.859552  0.576836  1
  O  O423  1  0.848697  0.199466  0.593183  1
  O  O424  1  0.848699  0.800673  0.593182  1
  O  O425  1  0.962204  -0.000000  0.566421  1
  O  O426  1  0.028469  0.200818  0.565660  1
  O  O427  1  0.028471  0.799315  0.565658  1
  O  O428  1  0.699478  0.500067  0.581940  1
  O  O429  1  0.657929  0.500060  0.565358  1
  O  O430  1  0.537750  0.399484  0.576090  1
  O  O431  1  0.537749  0.600643  0.576090  1
  O  O432  1  0.890247  0.500060  0.577559  1
  O  O433  1  0.830454  0.398419  0.591585  1
  O  O434  1  0.830458  0.601721  0.591585  1
  O  O435  1  0.003239  0.398593  0.566419  1
  O  O436  1  0.003232  0.601544  0.566419  1
  O  O437  1  0.164231  0.325809  0.573593  1
  O  O438  1  0.164232  0.674327  0.573592  1
  O  O439  1  0.432272  0.326959  0.563495  1
  O  O440  1  0.432273  0.673166  0.563494  1
  O  O441  1  0.352267  0.332557  0.579255  1
  O  O442  1  0.352268  0.667577  0.579254  1
  O  O443  1  0.004214  0.329349  0.596085  1
  O  O444  1  0.004215  0.670794  0.596085  1
  O  O445  1  0.858237  0.329283  0.607684  1
  O  O446  1  0.858235  0.670862  0.607684  1
  O  O447  1  0.240686  0.500068  0.578925  1
  O  O448  1  0.193282  0.359946  0.590585  1
  O  O449  1  0.193284  0.640196  0.590585  1
  O  O450  1  0.099299  0.500073  0.599693  1
  O  O451  1  0.299656  0.142415  0.634226  1
  O  O452  1  0.299656  0.857732  0.634226  1
  O  O453  1  0.421806  0.000000  0.640330  1
  O  O454  1  0.344427  0.137877  0.650711  1
  O  O455  1  0.344429  0.862272  0.650711  1
  O  O456  1  0.487376  0.201899  0.640225  1
  O  O457  1  0.487377  0.798253  0.640225  1
  O  O458  1  0.176889  -0.000000  0.628312  1
  O  O459  1  0.111764  0.140589  0.639111  1
  O  O460  1  0.111765  0.859557  0.639111  1
  O  O461  1  0.151234  0.199471  0.622765  1
  O  O462  1  0.151234  0.800677  0.622765  1
  O  O463  1  0.037727  -0.000000  0.649527  1
  O  O464  1  0.971460  0.200826  0.650288  1
  O  O465  1  0.971462  0.799322  0.650289  1
  O  O466  1  0.300452  0.500082  0.634007  1
  O  O467  1  0.342001  0.500075  0.650589  1
  O  O468  1  0.462179  0.399498  0.639857  1
  O  O469  1  0.462184  0.600656  0.639858  1
  O  O470  1  0.109683  0.500072  0.638388  1
  O  O471  1  0.169479  0.398424  0.624362  1
  O  O472  1  0.169471  0.601725  0.624362  1
  O  O473  1  0.996694  0.398600  0.649529  1
  O  O474  1  0.996695  0.601550  0.649528  1
  O  O475  1  0.835699  0.325818  0.642355  1
  O  O476  1  0.835699  0.674336  0.642355  1
  O  O477  1  0.567650  0.326974  0.652452  1
  O  O478  1  0.567652  0.673182  0.652453  1
  O  O479  1  0.647664  0.332568  0.636693  1
  O  O480  1  0.647666  0.667587  0.636693  1
  O  O481  1  0.995717  0.329355  0.619862  1
  O  O482  1  0.995714  0.670800  0.619862  1
  O  O483  1  0.141695  0.329284  0.608263  1
  O  O484  1  0.141695  0.670865  0.608263  1
  O  O485  1  0.759246  0.500078  0.637023  1
  O  O486  1  0.806649  0.359952  0.625362  1
  O  O487  1  0.806648  0.640202  0.625362  1
  O  O488  1  0.900633  0.500077  0.616254  1
  O  O489  1  0.658608  0.142426  0.702190  1
  O  O490  1  0.158635  0.142452  0.655666  1
  O  O491  1  0.158637  0.857696  0.655666  1
  O  O492  1  0.658598  0.857669  0.702191  1
  O  O493  1  0.780496  0.000000  0.696089  1
  O  O494  1  0.280528  -0.000000  0.661768  1
  O  O495  1  0.811998  0.202824  0.691205  1
  O  O496  1  0.312017  0.202856  0.666651  1
  O  O497  1  0.312021  0.797295  0.666652  1
  O  O498  1  0.811986  0.797262  0.691205  1
  O  O499  1  0.790987  0.399315  0.692965  1
  O  O500  1  0.291010  0.399352  0.664892  1
  O  O501  1  0.291014  0.600803  0.664892  1
  O  O502  1  0.790991  0.600767  0.692965  1
  O  O503  1  0.354219  0.329294  0.698239  1
  O  O504  1  0.854242  0.329303  0.659618  1
  O  O505  1  0.854247  0.670830  0.659618  1
  O  O506  1  0.354217  0.670813  0.698239  1
  O  O507  1  0.835261  0.329889  0.677244  1
  O  O508  1  0.335265  0.329899  0.680613  1
  O  O509  1  0.335258  0.670232  0.680613  1
  O  O510  1  0.835272  0.670222  0.677244  1
  O  O511  1  0.971612  0.331749  0.690133  1
  O  O512  1  0.471632  0.331777  0.667724  1
  O  O513  1  0.471635  0.668371  0.667725  1
  O  O514  1  0.971613  0.668352  0.690134  1
  O  O515  1  0.316497  0.500058  0.689801  1
  O  O516  1  0.816518  0.500063  0.668056  1
  O  O517  1  0.176462  0.361093  0.691079  1
  O  O518  1  0.676480  0.361109  0.666777  1
  O  O519  1  0.676485  0.639030  0.666777  1
  O  O520  1  0.176459  0.639014  0.691080  1
  O  O521  1  0.054055  0.500047  0.696645  1
  O  O522  1  0.554074  0.500075  0.661212  1
  O  O523  1  0.154380  0.500079  0.655283  1
  O  O524  1  0.654352  0.500051  0.702573  1
  O  O525  1  0.799626  0.142382  0.723630  1
  O  O526  1  0.799617  0.857700  0.723631  1
  O  O527  1  0.921772  0.000000  0.717527  1
  O  O528  1  0.844399  0.137843  0.707145  1
  O  O529  1  0.844390  0.862238  0.707146  1
  O  O530  1  0.987351  0.201859  0.717631  1
  O  O531  1  0.987338  0.798214  0.717632  1
  O  O532  1  0.676855  -0.000000  0.729544  1
  O  O533  1  0.611736  0.140563  0.718745  1
  O  O534  1  0.611726  0.859532  0.718746  1
  O  O535  1  0.651206  0.199441  0.735092  1
  O  O536  1  0.651197  0.800644  0.735092  1
  O  O537  1  0.537693  0.000000  0.708330  1
  O  O538  1  0.471435  0.200805  0.707568  1
  O  O539  1  0.471422  0.799299  0.707569  1
  O  O540  1  0.800423  0.500030  0.723850  1
  O  O541  1  0.841972  0.500041  0.707268  1
  O  O542  1  0.962154  0.399455  0.717999  1
  O  O543  1  0.962152  0.600614  0.718000  1
  O  O544  1  0.609658  0.500046  0.719468  1
  O  O545  1  0.669442  0.398390  0.733495  1
  O  O546  1  0.669454  0.601694  0.733495  1
  O  O547  1  0.496666  0.398577  0.708329  1
  O  O548  1  0.496667  0.601527  0.708329  1
  O  O549  1  0.335673  0.325788  0.715502  1
  O  O550  1  0.335663  0.674301  0.715503  1
  O  O551  1  0.067635  0.326937  0.705404  1
  O  O552  1  0.067633  0.673145  0.705406  1
  O  O553  1  0.147639  0.332528  0.721164  1
  O  O554  1  0.147633  0.667550  0.721165  1
  O  O555  1  0.495686  0.329314  0.737995  1
  O  O556  1  0.495690  0.670753  0.737995  1
  O  O557  1  0.641674  0.329245  0.749594  1
  O  O558  1  0.641674  0.670825  0.749594  1
  O  O559  1  0.259214  0.500041  0.720835  1
  O  O560  1  0.306620  0.359912  0.732495  1
  O  O561  1  0.306622  0.640163  0.732495  1
  O  O562  1  0.400604  0.500033  0.741603  1
  O  O563  1  0.200265  0.142373  0.776136  1
  O  O564  1  0.200271  0.857692  0.776136  1
  O  O565  1  0.078119  0.000000  0.782240  1
  O  O566  1  0.155496  0.137831  0.792622  1
  O  O567  1  0.155503  0.862226  0.792621  1
  O  O568  1  0.012544  0.201851  0.782136  1
  O  O569  1  0.012551  0.798207  0.782135  1
  O  O570  1  0.323034  0.000000  0.770222  1
  O  O571  1  0.388157  0.140553  0.781021  1
  O  O572  1  0.388165  0.859522  0.781021  1
  O  O573  1  0.348683  0.199433  0.764675  1
  O  O574  1  0.348689  0.800637  0.764674  1
  O  O575  1  0.462201  -0.000000  0.791436  1
  O  O576  1  0.528461  0.200792  0.792198  1
  O  O577  1  0.528472  0.799287  0.792197  1
  O  O578  1  0.199471  0.500028  0.775917  1
  O  O579  1  0.157922  0.500032  0.792499  1
  O  O580  1  0.037740  0.399448  0.781768  1
  O  O581  1  0.037741  0.600608  0.781767  1
  O  O582  1  0.390237  0.500041  0.780298  1
  O  O583  1  0.330446  0.398382  0.766272  1
  O  O584  1  0.330440  0.601685  0.766272  1
  O  O585  1  0.503230  0.398564  0.791438  1
  O  O586  1  0.503230  0.601514  0.791438  1
  O  O587  1  0.664225  0.325777  0.784264  1
  O  O588  1  0.664229  0.674288  0.784264  1
  O  O589  1  0.932262  0.326929  0.794363  1
  O  O590  1  0.932263  0.673135  0.794362  1
  O  O591  1  0.852256  0.332519  0.778603  1
  O  O592  1  0.852260  0.667541  0.778602  1
  O  O593  1  0.504201  0.329311  0.761772  1
  O  O594  1  0.504201  0.670751  0.761772  1
  O  O595  1  0.358212  0.329246  0.750173  1
  O  O596  1  0.358217  0.670824  0.750173  1
  O  O597  1  0.740680  0.500030  0.778932  1
  O  O598  1  0.693270  0.359905  0.767272  1
  O  O599  1  0.693271  0.640157  0.767272  1
  O  O600  1  0.599285  0.500031  0.758164  1
  O  O601  1  0.841295  0.142442  0.844101  1
  O  O602  1  0.341289  0.142412  0.797576  1
  O  O603  1  0.341298  0.857655  0.797576  1
  O  O604  1  0.841296  0.857686  0.844100  1
  O  O605  1  0.719403  -0.000000  0.837999  1
  O  O606  1  0.219402  0.000000  0.803678  1
  O  O607  1  0.687911  0.202843  0.833115  1
  O  O608  1  0.187901  0.202808  0.808562  1
  O  O609  1  0.187915  0.797248  0.808561  1
  O  O610  1  0.687908  0.797281  0.833115  1
  O  O611  1  0.708916  0.399338  0.834875  1
  O  O612  1  0.208909  0.399298  0.806801  1
  O  O613  1  0.208909  0.600751  0.806803  1
  O  O614  1  0.708913  0.600789  0.834875  1
  O  O615  1  0.145688  0.329291  0.840149  1
  O  O616  1  0.645676  0.329280  0.801528  1
  O  O617  1  0.645683  0.670807  0.801528  1
  O  O618  1  0.145681  0.670815  0.840149  1
  O  O619  1  0.664644  0.329887  0.819154  1
  O  O620  1  0.164650  0.329876  0.822523  1
  O  O621  1  0.164642  0.670208  0.822523  1
  O  O622  1  0.664650  0.670219  0.819154  1
  O  O623  1  0.528292  0.331760  0.832044  1
  O  O624  1  0.028285  0.331734  0.809634  1
  O  O625  1  0.028289  0.668338  0.809633  1
  O  O626  1  0.528289  0.668359  0.832043  1
  O  O627  1  0.183406  0.500048  0.831711  1
  O  O628  1  0.683401  0.500046  0.809965  1
  O  O629  1  0.323446  0.361094  0.832990  1
  O  O630  1  0.823435  0.361082  0.808687  1
  O  O631  1  0.823440  0.639000  0.808687  1
  O  O632  1  0.323441  0.639015  0.832990  1
  O  O633  1  0.445850  0.500059  0.838555  1
  O  O634  1  0.945847  0.500035  0.803122  1
  O  O635  1  0.345545  0.500035  0.797193  1
  O  O636  1  0.845549  0.500066  0.844483  1
  O  O637  1  0.700275  0.142408  0.865541  1
  O  O638  1  0.700279  0.857725  0.865540  1
  O  O639  1  0.578127  0.000000  0.859437  1
  O  O640  1  0.655503  0.137865  0.849056  1
  O  O641  1  0.655505  0.862261  0.849055  1
  O  O642  1  0.512554  0.201886  0.859542  1
  O  O643  1  0.512557  0.798241  0.859541  1
  O  O644  1  0.823044  0.000000  0.871454  1
  O  O645  1  0.888166  0.140584  0.860656  1
  O  O646  1  0.888169  0.859552  0.860655  1
  O  O647  1  0.848697  0.199466  0.877002  1
  O  O648  1  0.848699  0.800673  0.877002  1
  O  O649  1  0.962204  0.000000  0.850240  1
  O  O650  1  0.028469  0.200818  0.849479  1
  O  O651  1  0.028471  0.799315  0.849478  1
  O  O652  1  0.699478  0.500067  0.865760  1
  O  O653  1  0.657929  0.500060  0.849178  1
  O  O654  1  0.537750  0.399484  0.859910  1
  O  O655  1  0.537749  0.600643  0.859909  1
  O  O656  1  0.890247  0.500060  0.861378  1
  O  O657  1  0.830454  0.398419  0.875405  1
  O  O658  1  0.830458  0.601721  0.875404  1
  O  O659  1  0.003239  0.398593  0.850238  1
  O  O660  1  0.003232  0.601544  0.850239  1
  O  O661  1  0.164231  0.325809  0.857412  1
  O  O662  1  0.164232  0.674327  0.857412  1
  O  O663  1  0.432272  0.326959  0.847315  1
  O  O664  1  0.432273  0.673166  0.847314  1
  O  O665  1  0.352267  0.332557  0.863074  1
  O  O666  1  0.352268  0.667577  0.863074  1
  O  O667  1  0.004214  0.329349  0.879905  1
  O  O668  1  0.004215  0.670794  0.879905  1
  O  O669  1  0.858237  0.329283  0.891504  1
  O  O670  1  0.858235  0.670862  0.891503  1
  O  O671  1  0.240686  0.500068  0.862744  1
  O  O672  1  0.193282  0.359946  0.874404  1
  O  O673  1  0.193284  0.640196  0.874404  1
  O  O674  1  0.099299  0.500073  0.883512  1
  O  O675  1  0.141695  0.329284  0.892083  1
  O  O676  1  0.141695  0.670865  0.892082  1
  Si  Si677  1  0.885960  0.622985  0.049680  1
  Si  Si678  1  0.393204  0.121579  0.073394  1
  Si  Si679  1  0.393202  0.878571  0.073394  1
  Si  Si680  1  0.184673  0.121840  0.063020  1
  Si  Si681  1  0.184673  0.878306  0.063020  1
  Si  Si682  1  0.065114  0.121782  0.081220  1
  Si  Si683  1  0.065116  0.878364  0.081220  1
  Si  Si684  1  0.392598  0.500077  0.073276  1
  Si  Si685  1  0.187038  0.500076  0.062509  1
  Si  Si686  1  0.063245  0.500075  0.080570  1
  Si  Si687  1  0.912837  0.310239  0.082836  1
  Si  Si688  1  0.912839  0.689909  0.082836  1
  Si  Si689  1  0.543758  0.311007  0.074445  1
  Si  Si690  1  0.543760  0.689146  0.074446  1
  Si  Si691  1  0.116361  0.309253  0.051003  1
  Si  Si692  1  0.116359  0.690898  0.051003  1
  Si  Si693  1  0.760974  0.377569  0.067550  1
  Si  Si694  1  0.760975  0.622585  0.067550  1
  Si  Si695  1  0.885963  0.377166  0.049680  1
  Si  Si696  1  0.773266  0.121568  0.130949  1
  Si  Si697  1  0.273292  0.121598  0.091629  1
  Si  Si698  1  0.273294  0.878549  0.091630  1
  Si  Si699  1  0.773256  0.878520  0.130950  1
  Si  Si700  1  0.768435  0.500044  0.131148  1
  Si  Si701  1  0.268463  0.500078  0.091431  1
  Si  Si702  1  0.853468  0.312677  0.120000  1
  Si  Si703  1  0.353485  0.312707  0.102579  1
  Si  Si704  1  0.353487  0.687442  0.102580  1
  Si  Si705  1  0.853469  0.687416  0.120000  1
  Si  Si706  1  0.297313  0.377652  0.122193  1
  Si  Si707  1  0.797330  0.377656  0.100385  1
  Si  Si708  1  0.797334  0.622472  0.100385  1
  Si  Si709  1  0.297311  0.622466  0.122193  1
  Si  Si710  1  0.066740  0.377145  0.128025  1
  Si  Si711  1  0.566755  0.377173  0.094553  1
  Si  Si712  1  0.566757  0.622977  0.094554  1
  Si  Si713  1  0.066740  0.622950  0.128026  1
  Si  Si714  1  0.385935  0.622946  0.172899  1
  Si  Si715  1  0.893174  0.121542  0.149184  1
  Si  Si716  1  0.893165  0.878534  0.149185  1
  Si  Si717  1  0.684646  0.121808  0.159558  1
  Si  Si718  1  0.684636  0.878276  0.159559  1
  Si  Si719  1  0.565088  0.121758  0.141358  1
  Si  Si720  1  0.565078  0.878341  0.141359  1
  Si  Si721  1  0.892571  0.500034  0.149303  1
  Si  Si722  1  0.687014  0.500042  0.160069  1
  Si  Si723  1  0.563218  0.500053  0.142008  1
  Si  Si724  1  0.412810  0.310219  0.139743  1
  Si  Si725  1  0.412804  0.689882  0.139743  1
  Si  Si726  1  0.043734  0.310966  0.148133  1
  Si  Si727  1  0.043726  0.689109  0.148134  1
  Si  Si728  1  0.616333  0.309216  0.171575  1
  Si  Si729  1  0.616336  0.690863  0.171575  1
  Si  Si730  1  0.260943  0.377532  0.155029  1
  Si  Si731  1  0.260941  0.622550  0.155029  1
  Si  Si732  1  0.385930  0.377125  0.172899  1
  Si  Si733  1  0.613957  0.622943  0.191589  1
  Si  Si734  1  0.106720  0.121535  0.215305  1
  Si  Si735  1  0.106724  0.878525  0.215304  1
  Si  Si736  1  0.315246  0.121802  0.204930  1
  Si  Si737  1  0.315252  0.878269  0.204930  1
  Si  Si738  1  0.434808  0.121747  0.223130  1
  Si  Si739  1  0.434817  0.878329  0.223130  1
  Si  Si740  1  0.107323  0.500029  0.215186  1
  Si  Si741  1  0.312880  0.500035  0.204419  1
  Si  Si742  1  0.436677  0.500040  0.222481  1
  Si  Si743  1  0.587085  0.310206  0.224746  1
  Si  Si744  1  0.587092  0.689870  0.224745  1
  Si  Si745  1  0.956162  0.310961  0.216356  1
  Si  Si746  1  0.956164  0.689100  0.216355  1
  Si  Si747  1  0.383554  0.309211  0.192913  1
  Si  Si748  1  0.383556  0.690856  0.192913  1
  Si  Si749  1  0.738950  0.377523  0.209460  1
  Si  Si750  1  0.738952  0.622540  0.209460  1
  Si  Si751  1  0.613957  0.377123  0.191589  1
  Si  Si752  1  0.726638  0.121586  0.272859  1
  Si  Si753  1  0.226632  0.121555  0.233540  1
  Si  Si754  1  0.226640  0.878505  0.233539  1
  Si  Si755  1  0.726637  0.878537  0.272859  1
  Si  Si756  1  0.731468  0.500064  0.273058  1
  Si  Si757  1  0.231460  0.500028  0.233341  1
  Si  Si758  1  0.646439  0.312693  0.261910  1
  Si  Si759  1  0.146430  0.312663  0.244489  1
  Si  Si760  1  0.146433  0.687400  0.244489  1
  Si  Si761  1  0.646437  0.687429  0.261909  1
  Si  Si762  1  0.202593  0.377641  0.264103  1
  Si  Si763  1  0.702586  0.377640  0.242295  1
  Si  Si764  1  0.702590  0.622454  0.242295  1
  Si  Si765  1  0.202589  0.622457  0.264103  1
  Si  Si766  1  0.433166  0.377157  0.269935  1
  Si  Si767  1  0.933162  0.377134  0.236464  1
  Si  Si768  1  0.933162  0.622937  0.236463  1
  Si  Si769  1  0.433165  0.622963  0.269935  1
  Si  Si770  1  0.113972  0.622981  0.314809  1
  Si  Si771  1  0.606728  0.121568  0.291095  1
  Si  Si772  1  0.606730  0.878559  0.291094  1
  Si  Si773  1  0.815258  0.121837  0.301469  1
  Si  Si774  1  0.815260  0.878302  0.301468  1
  Si  Si775  1  0.934816  0.121776  0.283268  1
  Si  Si776  1  0.934817  0.878356  0.283268  1
  Si  Si777  1  0.607333  0.500064  0.291213  1
  Si  Si778  1  0.812893  0.500067  0.301980  1
  Si  Si779  1  0.936684  0.500066  0.283918  1
  Si  Si780  1  0.087093  0.310232  0.281653  1
  Si  Si781  1  0.087092  0.689898  0.281653  1
  Si  Si782  1  0.456171  0.310994  0.290043  1
  Si  Si783  1  0.456172  0.689135  0.290043  1
  Si  Si784  1  0.883571  0.309248  0.313486  1
  Si  Si785  1  0.883572  0.690891  0.313485  1
  Si  Si786  1  0.238956  0.377561  0.296939  1
  Si  Si787  1  0.238957  0.622577  0.296938  1
  Si  Si788  1  0.113969  0.377163  0.314809  1
  Si  Si789  1  0.885960  0.622985  0.333499  1
  Si  Si790  1  0.393204  0.121579  0.357213  1
  Si  Si791  1  0.393202  0.878571  0.357214  1
  Si  Si792  1  0.184673  0.121840  0.346839  1
  Si  Si793  1  0.184673  0.878306  0.346840  1
  Si  Si794  1  0.065114  0.121782  0.365039  1
  Si  Si795  1  0.065116  0.878364  0.365040  1
  Si  Si796  1  0.392598  0.500077  0.357095  1
  Si  Si797  1  0.187038  0.500076  0.346328  1
  Si  Si798  1  0.063245  0.500075  0.364390  1
  Si  Si799  1  0.912837  0.310239  0.366655  1
  Si  Si800  1  0.912839  0.689909  0.366656  1
  Si  Si801  1  0.543758  0.311007  0.358265  1
  Si  Si802  1  0.543760  0.689146  0.358266  1
  Si  Si803  1  0.116361  0.309253  0.334823  1
  Si  Si804  1  0.116359  0.690898  0.334823  1
  Si  Si805  1  0.760974  0.377569  0.351370  1
  Si  Si806  1  0.760975  0.622585  0.351370  1
  Si  Si807  1  0.885963  0.377166  0.333499  1
  Si  Si808  1  0.773266  0.121568  0.414769  1
  Si  Si809  1  0.273292  0.121598  0.375449  1
  Si  Si810  1  0.273294  0.878549  0.375449  1
  Si  Si811  1  0.773256  0.878520  0.414769  1
  Si  Si812  1  0.768435  0.500044  0.414968  1
  Si  Si813  1  0.268463  0.500078  0.375250  1
  Si  Si814  1  0.853468  0.312677  0.403819  1
  Si  Si815  1  0.353485  0.312707  0.386399  1
  Si  Si816  1  0.353487  0.687442  0.386399  1
  Si  Si817  1  0.853469  0.687416  0.403820  1
  Si  Si818  1  0.297313  0.377652  0.406013  1
  Si  Si819  1  0.797330  0.377656  0.384205  1
  Si  Si820  1  0.797334  0.622472  0.384205  1
  Si  Si821  1  0.297311  0.622466  0.406013  1
  Si  Si822  1  0.066740  0.377145  0.411845  1
  Si  Si823  1  0.566755  0.377173  0.378373  1
  Si  Si824  1  0.566757  0.622977  0.378374  1
  Si  Si825  1  0.066740  0.622950  0.411846  1
  Si  Si826  1  0.385935  0.622946  0.456719  1
  Si  Si827  1  0.893174  0.121542  0.433004  1
  Si  Si828  1  0.893165  0.878534  0.433004  1
  Si  Si829  1  0.684646  0.121808  0.443378  1
  Si  Si830  1  0.684636  0.878276  0.443378  1
  Si  Si831  1  0.565088  0.121758  0.425178  1
  Si  Si832  1  0.565078  0.878341  0.425178  1
  Si  Si833  1  0.892571  0.500034  0.433122  1
  Si  Si834  1  0.687014  0.500042  0.443889  1
  Si  Si835  1  0.563218  0.500053  0.425828  1
  Si  Si836  1  0.412810  0.310219  0.423562  1
  Si  Si837  1  0.412804  0.689882  0.423563  1
  Si  Si838  1  0.043734  0.310966  0.431952  1
  Si  Si839  1  0.043726  0.689109  0.431954  1
  Si  Si840  1  0.616333  0.309216  0.455395  1
  Si  Si841  1  0.616336  0.690863  0.455395  1
  Si  Si842  1  0.260943  0.377532  0.438848  1
  Si  Si843  1  0.260941  0.622550  0.438848  1
  Si  Si844  1  0.385930  0.377125  0.456719  1
  Si  Si845  1  0.613957  0.622943  0.475409  1
  Si  Si846  1  0.106720  0.121535  0.499124  1
  Si  Si847  1  0.106724  0.878525  0.499124  1
  Si  Si848  1  0.315246  0.121802  0.488750  1
  Si  Si849  1  0.315252  0.878269  0.488749  1
  Si  Si850  1  0.434808  0.121747  0.506950  1
  Si  Si851  1  0.434817  0.878329  0.506949  1
  Si  Si852  1  0.107323  0.500029  0.499006  1
  Si  Si853  1  0.312880  0.500035  0.488239  1
  Si  Si854  1  0.436677  0.500040  0.506300  1
  Si  Si855  1  0.587085  0.310206  0.508565  1
  Si  Si856  1  0.587092  0.689870  0.508565  1
  Si  Si857  1  0.956162  0.310961  0.500176  1
  Si  Si858  1  0.956164  0.689100  0.500175  1
  Si  Si859  1  0.383554  0.309211  0.476733  1
  Si  Si860  1  0.383556  0.690856  0.476733  1
  Si  Si861  1  0.738950  0.377523  0.493279  1
  Si  Si862  1  0.738952  0.622540  0.493279  1
  Si  Si863  1  0.613957  0.377123  0.475409  1
  Si  Si864  1  0.726638  0.121586  0.556679  1
  Si  Si865  1  0.226632  0.121555  0.517359  1
  Si  Si866  1  0.226640  0.878505  0.517359  1
  Si  Si867  1  0.726637  0.878537  0.556678  1
  Si  Si868  1  0.731468  0.500064  0.556877  1
  Si  Si869  1  0.231460  0.500028  0.517160  1
  Si  Si870  1  0.646439  0.312693  0.545729  1
  Si  Si871  1  0.146430  0.312663  0.528309  1
  Si  Si872  1  0.146433  0.687400  0.528308  1
  Si  Si873  1  0.646437  0.687429  0.545729  1
  Si  Si874  1  0.202593  0.377641  0.547923  1
  Si  Si875  1  0.702586  0.377640  0.526114  1
  Si  Si876  1  0.702590  0.622454  0.526115  1
  Si  Si877  1  0.202589  0.622457  0.547923  1
  Si  Si878  1  0.433166  0.377157  0.553755  1
  Si  Si879  1  0.933162  0.377134  0.520283  1
  Si  Si880  1  0.933162  0.622937  0.520283  1
  Si  Si881  1  0.433165  0.622963  0.553754  1
  Si  Si882  1  0.113972  0.622981  0.598628  1
  Si  Si883  1  0.606728  0.121568  0.574914  1
  Si  Si884  1  0.606730  0.878559  0.574914  1
  Si  Si885  1  0.815258  0.121837  0.585289  1
  Si  Si886  1  0.815260  0.878302  0.585288  1
  Si  Si887  1  0.934816  0.121776  0.567088  1
  Si  Si888  1  0.934817  0.878356  0.567087  1
  Si  Si889  1  0.607333  0.500064  0.575032  1
  Si  Si890  1  0.812893  0.500067  0.585799  1
  Si  Si891  1  0.936684  0.500066  0.567738  1
  Si  Si892  1  0.087093  0.310232  0.565473  1
  Si  Si893  1  0.087092  0.689898  0.565472  1
  Si  Si894  1  0.456171  0.310994  0.573863  1
  Si  Si895  1  0.456172  0.689135  0.573862  1
  Si  Si896  1  0.883571  0.309248  0.597305  1
  Si  Si897  1  0.883572  0.690891  0.597305  1
  Si  Si898  1  0.238956  0.377561  0.580758  1
  Si  Si899  1  0.238957  0.622577  0.580758  1
  Si  Si900  1  0.113969  0.377163  0.598629  1
  Si  Si901  1  0.885960  0.622985  0.617319  1
  Si  Si902  1  0.393204  0.121579  0.641033  1
  Si  Si903  1  0.393202  0.878571  0.641033  1
  Si  Si904  1  0.184673  0.121840  0.630659  1
  Si  Si905  1  0.184673  0.878306  0.630659  1
  Si  Si906  1  0.065114  0.121782  0.648859  1
  Si  Si907  1  0.065116  0.878364  0.648859  1
  Si  Si908  1  0.392598  0.500077  0.640915  1
  Si  Si909  1  0.187038  0.500076  0.630148  1
  Si  Si910  1  0.063245  0.500075  0.648209  1
  Si  Si911  1  0.912837  0.310239  0.650475  1
  Si  Si912  1  0.912839  0.689909  0.650475  1
  Si  Si913  1  0.543758  0.311007  0.642085  1
  Si  Si914  1  0.543760  0.689146  0.642085  1
  Si  Si915  1  0.116361  0.309253  0.618642  1
  Si  Si916  1  0.116359  0.690898  0.618642  1
  Si  Si917  1  0.760974  0.377569  0.635189  1
  Si  Si918  1  0.760975  0.622585  0.635189  1
  Si  Si919  1  0.885963  0.377166  0.617319  1
  Si  Si920  1  0.773266  0.121568  0.698588  1
  Si  Si921  1  0.273292  0.121598  0.659268  1
  Si  Si922  1  0.273294  0.878549  0.659269  1
  Si  Si923  1  0.773256  0.878520  0.698589  1
  Si  Si924  1  0.768435  0.500044  0.698787  1
  Si  Si925  1  0.268463  0.500078  0.659070  1
  Si  Si926  1  0.853468  0.312677  0.687639  1
  Si  Si927  1  0.353485  0.312707  0.670218  1
  Si  Si928  1  0.353487  0.687442  0.670219  1
  Si  Si929  1  0.853469  0.687416  0.687639  1
  Si  Si930  1  0.297313  0.377652  0.689832  1
  Si  Si931  1  0.797330  0.377656  0.668024  1
  Si  Si932  1  0.797334  0.622472  0.668024  1
  Si  Si933  1  0.297311  0.622466  0.689832  1
  Si  Si934  1  0.066740  0.377145  0.695664  1
  Si  Si935  1  0.566755  0.377173  0.662193  1
  Si  Si936  1  0.566757  0.622977  0.662193  1
  Si  Si937  1  0.066740  0.622950  0.695665  1
  Si  Si938  1  0.385935  0.622946  0.740538  1
  Si  Si939  1  0.893174  0.121542  0.716823  1
  Si  Si940  1  0.893165  0.878534  0.716824  1
  Si  Si941  1  0.684646  0.121808  0.727197  1
  Si  Si942  1  0.684636  0.878276  0.727198  1
  Si  Si943  1  0.565088  0.121758  0.708997  1
  Si  Si944  1  0.565078  0.878341  0.708998  1
  Si  Si945  1  0.892571  0.500034  0.716942  1
  Si  Si946  1  0.687014  0.500042  0.727708  1
  Si  Si947  1  0.563218  0.500053  0.709647  1
  Si  Si948  1  0.412810  0.310219  0.707382  1
  Si  Si949  1  0.412804  0.689882  0.707382  1
  Si  Si950  1  0.043734  0.310966  0.715772  1
  Si  Si951  1  0.043726  0.689109  0.715773  1
  Si  Si952  1  0.616333  0.309216  0.739214  1
  Si  Si953  1  0.616336  0.690863  0.739214  1
  Si  Si954  1  0.260943  0.377532  0.722668  1
  Si  Si955  1  0.260941  0.622550  0.722668  1
  Si  Si956  1  0.385930  0.377125  0.740538  1
  Si  Si957  1  0.613957  0.622943  0.759228  1
  Si  Si958  1  0.106720  0.121535  0.782944  1
  Si  Si959  1  0.106724  0.878525  0.782943  1
  Si  Si960  1  0.315246  0.121802  0.772569  1
  Si  Si961  1  0.315252  0.878269  0.772569  1
  Si  Si962  1  0.434808  0.121747  0.790769  1
  Si  Si963  1  0.434817  0.878329  0.790769  1
  Si  Si964  1  0.107323  0.500029  0.782825  1
  Si  Si965  1  0.312880  0.500035  0.772059  1
  Si  Si966  1  0.436677  0.500040  0.790120  1
  Si  Si967  1  0.587085  0.310206  0.792385  1
  Si  Si968  1  0.587092  0.689870  0.792385  1
  Si  Si969  1  0.956162  0.310961  0.783995  1
  Si  Si970  1  0.956164  0.689100  0.783994  1
  Si  Si971  1  0.383554  0.309211  0.760553  1
  Si  Si972  1  0.383556  0.690856  0.760552  1
  Si  Si973  1  0.738950  0.377523  0.777099  1
  Si  Si974  1  0.738952  0.622540  0.777099  1
  Si  Si975  1  0.613957  0.377123  0.759228  1
  Si  Si976  1  0.726638  0.121586  0.840498  1
  Si  Si977  1  0.226632  0.121555  0.801179  1
  Si  Si978  1  0.226640  0.878505  0.801178  1
  Si  Si979  1  0.726637  0.878537  0.840498  1
  Si  Si980  1  0.731468  0.500064  0.840697  1
  Si  Si981  1  0.231460  0.500028  0.800980  1
  Si  Si982  1  0.646439  0.312693  0.829549  1
  Si  Si983  1  0.146430  0.312663  0.812128  1
  Si  Si984  1  0.146433  0.687400  0.812128  1
  Si  Si985  1  0.646437  0.687429  0.829548  1
  Si  Si986  1  0.202593  0.377641  0.831742  1
  Si  Si987  1  0.702586  0.377640  0.809934  1
  Si  Si988  1  0.702590  0.622454  0.809934  1
  Si  Si989  1  0.202589  0.622457  0.831742  1
  Si  Si990  1  0.433166  0.377157  0.837574  1
  Si  Si991  1  0.933162  0.377134  0.804103  1
  Si  Si992  1  0.933162  0.622937  0.804102  1
  Si  Si993  1  0.433165  0.622963  0.837574  1
  Si  Si994  1  0.113972  0.622981  0.882448  1
  Si  Si995  1  0.606728  0.121568  0.858734  1
  Si  Si996  1  0.606730  0.878559  0.858733  1
  Si  Si997  1  0.815258  0.121837  0.869108  1
  Si  Si998  1  0.815260  0.878302  0.869108  1
  Si  Si999  1  0.934816  0.121776  0.850908  1
  Si  Si1000  1  0.934817  0.878356  0.850907  1
  Si  Si1001  1  0.607333  0.500064  0.858852  1
  Si  Si1002  1  0.812893  0.500067  0.869619  1
  Si  Si1003  1  0.936684  0.500066  0.851557  1
  Si  Si1004  1  0.087093  0.310232  0.849292  1
  Si  Si1005  1  0.087092  0.689898  0.849292  1
  Si  Si1006  1  0.456171  0.310994  0.857682  1
  Si  Si1007  1  0.456172  0.689135  0.857682  1
  Si  Si1008  1  0.883571  0.309248  0.881125  1
  Si  Si1009  1  0.883572  0.690891  0.881124  1
  Si  Si1010  1  0.238956  0.377561  0.864578  1
  Si  Si1011  1  0.238957  0.622577  0.864577  1
  Si  Si1012  1  0.113969  0.377163  0.882448  1
  H  H1013  1  0.858237  0.329283  0.033937  1
  H  H1014  1  0.858235  0.670862  0.033936  1
  H  H1015  1  0.141695  0.329284  0.034516  1
  H  H1016  1  0.141695  0.670865  0.034515  1
  H  H1017  1  0.858237  0.329283  0.897613  1
  H  H1018  1  0.858235  0.670862  0.897612  1
  H  H1019  1  0.141695  0.329284  0.898191  1
  H  H1020  1  0.141695  0.670865  0.898191  1
