# generated using pymatgen
data_Si37H2O75
_symmetry_space_group_name_H-M   'P 1'
_cell_length_a   25.48081259
_cell_length_b   13.88888375
_cell_length_c   77.94378382
_cell_angle_alpha   90.00000000
_cell_angle_beta   90.00000000
_cell_angle_gamma   90.00000000
_symmetry_Int_Tables_number   1
_chemical_formula_structural   Si37H2O75
_chemical_formula_sum   'Si296 H16 O600'
_cell_volume   27584.3085164
_cell_formula_units_Z   8
loop_
 _symmetry_equiv_pos_site_id
 _symmetry_equiv_pos_as_xyz
  1  'x, y, z'
loop_
 _atom_site_type_symbol
 _atom_site_label
 _atom_site_symmetry_multiplicity
 _atom_site_fract_x
 _atom_site_fract_y
 _atom_site_fract_z
 _atom_site_occupancy
  O  O1  1  0.571857  0.635861  0.075696  1
  O  O2  1  0.572672  0.366203  0.075729  1
  O  O3  1  0.087549  0.170949  0.110438  1
  O  O4  1  0.411670  0.669817  0.110360  1
  O  O5  1  0.412361  0.329144  0.110378  1
  O  O6  1  0.087407  0.829434  0.110431  1
  O  O7  1  0.095008  0.092322  0.139196  1
  O  O8  1  0.094979  0.592352  0.192336  1
  O  O9  1  0.404113  0.591989  0.139168  1
  O  O10  1  0.403688  0.091824  0.192527  1
  O  O11  1  0.405051  0.907397  0.192174  1
  O  O12  1  0.404852  0.407549  0.139198  1
  O  O13  1  0.095119  0.407927  0.192352  1
  O  O14  1  0.095112  0.907918  0.139184  1
  O  O15  1  0.149915  0.242062  0.134842  1
  O  O16  1  0.350001  0.742857  0.134791  1
  O  O17  1  0.350290  0.257356  0.134843  1
  O  O18  1  0.149721  0.757861  0.134803  1
  O  O19  1  0.050279  0.252153  0.138023  1
  O  O20  1  0.050150  0.752111  0.193502  1
  O  O21  1  0.449681  0.751077  0.137790  1
  O  O22  1  0.449747  0.250747  0.193577  1
  O  O23  1  0.449881  0.747931  0.193789  1
  O  O24  1  0.449949  0.248087  0.137889  1
  O  O25  1  0.050219  0.248242  0.193546  1
  O  O26  1  0.050108  0.748269  0.138004  1
  O  O27  1  0.427793  0.633968  0.075868  1
  O  O28  1  0.499435  0.901652  0.147828  1
  O  O29  1  0.429270  0.499220  0.097838  1
  O  O30  1  0.428612  0.364355  0.075810  1
  O  O31  1  0.190289  0.900521  0.184124  1
  O  O32  1  0.190260  0.400494  0.147401  1
  O  O33  1  0.308524  0.400644  0.184153  1
  O  O34  1  0.308535  0.900701  0.147365  1
  O  O35  1  0.308782  0.099634  0.147408  1
  O  O36  1  0.308822  0.599562  0.184098  1
  O  O37  1  0.190174  0.599451  0.147363  1
  O  O38  1  0.190208  0.099471  0.184162  1
  O  O39  1  0.151312  -0.000000  0.160348  1
  O  O40  1  0.151266  0.500135  0.171177  1
  O  O41  1  0.349525  0.499484  0.160685  1
  O  O42  1  0.349602  0.000000  0.170801  1
  O  O43  1  0.250589  0.000000  0.166232  1
  O  O44  1  0.250545  0.500287  0.165298  1
  O  O45  1  0.181350  0.250003  0.165785  1
  O  O46  1  0.181242  0.750015  0.165744  1
  O  O47  1  0.318526  0.750109  0.165727  1
  O  O48  1  0.318678  0.250072  0.165800  1
  O  O49  1  0.249977  0.249463  0.188829  1
  O  O50  1  0.249856  0.749603  0.142696  1
  O  O51  1  0.249946  0.750388  0.188775  1
  O  O52  1  0.250085  0.250589  0.142751  1
  O  O53  1  0.050637  0.000000  0.162727  1
  O  O54  1  0.050600  0.499913  0.168813  1
  O  O55  1  0.449712  0.500663  0.162598  1
  O  O56  1  0.449844  0.002369  0.169000  1
  O  O57  1  0.499936  0.401462  0.183757  1
  O  O58  1  0.588660  0.670468  0.110237  1
  O  O59  1  0.910792  0.170094  0.109887  1
  O  O60  1  0.910641  0.830532  0.109934  1
  O  O61  1  0.589391  0.330694  0.110187  1
  O  O62  1  0.595077  0.592848  0.139175  1
  O  O63  1  0.595229  0.092717  0.192280  1
  O  O64  1  0.904755  0.092162  0.138800  1
  O  O65  1  0.904821  0.592190  0.192724  1
  O  O66  1  0.904990  0.407696  0.192656  1
  O  O67  1  0.904998  0.907654  0.138908  1
  O  O68  1  0.596166  0.907975  0.192557  1
  O  O69  1  0.596194  0.408103  0.139058  1
  O  O70  1  0.650048  0.742834  0.134831  1
  O  O71  1  0.850126  0.242457  0.134690  1
  O  O72  1  0.849918  0.757923  0.134707  1
  O  O73  1  0.650361  0.256990  0.134766  1
  O  O74  1  0.550075  0.752769  0.137251  1
  O  O75  1  0.949982  0.251869  0.137005  1
  O  O76  1  0.949874  0.752018  0.194546  1
  O  O77  1  0.949931  0.247852  0.194562  1
  O  O78  1  0.949816  0.747773  0.136962  1
  O  O79  1  0.550277  0.748546  0.194243  1
  O  O80  1  0.550349  0.248803  0.137150  1
  O  O81  1  0.501847  0.750002  0.165765  1
  O  O82  1  0.502650  0.250153  0.165758  1
  O  O83  1  0.996800  0.750019  0.165754  1
  O  O84  1  0.501156  0.098630  0.147796  1
  O  O85  1  -0.000000  0.901670  0.183662  1
  O  O86  1  -0.000000  0.401629  0.147864  1
  O  O87  1  0.500036  0.624043  0.097891  1
  O  O88  1  0.000000  0.598395  0.147836  1
  O  O89  1  0.571390  0.500902  0.097672  1
  O  O90  1  0.691419  0.400628  0.184057  1
  O  O91  1  0.691466  0.900450  0.147455  1
  O  O92  1  0.810317  0.900735  0.184062  1
  O  O93  1  0.810281  0.400739  0.147487  1
  O  O94  1  0.810225  0.599472  0.147497  1
  O  O95  1  0.810187  0.099458  0.184047  1
  O  O96  1  0.691681  0.099323  0.147426  1
  O  O97  1  0.691701  0.599464  0.184127  1
  O  O98  1  0.650667  0.500757  0.160604  1
  O  O99  1  0.650721  -0.000000  0.170929  1
  O  O100  1  0.848806  0.000000  0.160106  1
  O  O101  1  0.848762  0.500055  0.171446  1
  O  O102  1  0.749655  0.499926  0.165290  1
  O  O103  1  0.749681  0.000000  0.166238  1
  O  O104  1  0.681412  0.750019  0.165804  1
  O  O105  1  0.681564  0.249999  0.165733  1
  O  O106  1  0.819263  0.250056  0.165761  1
  O  O107  1  0.819139  0.750066  0.165775  1
  O  O108  1  0.750240  0.750957  0.188763  1
  O  O109  1  0.750378  0.250705  0.142782  1
  O  O110  1  0.750277  0.249489  0.188718  1
  O  O111  1  0.750140  0.749187  0.142817  1
  O  O112  1  0.550546  0.498911  0.162517  1
  O  O113  1  0.550595  0.998246  0.169026  1
  O  O114  1  0.949324  0.000000  0.162383  1
  O  O115  1  0.949288  0.500368  0.169144  1
  O  O116  1  0.550157  0.252376  0.194408  1
  O  O117  1  0.996970  0.250040  0.165787  1
  O  O118  1  0.500651  0.376045  0.097882  1
  O  O119  1  0.500690  0.598472  0.183729  1
  O  O120  1  0.000000  0.098399  0.183699  1
  O  O121  1  0.089787  0.670180  0.290074  1
  O  O122  1  0.087457  0.671018  0.221085  1
  O  O123  1  0.412531  0.170903  0.290397  1
  O  O124  1  0.412258  0.171083  0.221207  1
  O  O125  1  0.411760  0.830401  0.221108  1
  O  O126  1  0.410978  0.831834  0.290164  1
  O  O127  1  0.087495  0.329528  0.221102  1
  O  O128  1  0.089869  0.329875  0.290036  1
  O  O129  1  0.150949  0.744013  0.314619  1
  O  O130  1  0.149794  0.742186  0.196688  1
  O  O131  1  0.350964  0.242985  0.314841  1
  O  O132  1  0.350144  0.243206  0.196769  1
  O  O133  1  0.350141  0.757555  0.196652  1
  O  O134  1  0.350925  0.756441  0.314731  1
  O  O135  1  0.149840  0.257959  0.196727  1
  O  O136  1  0.151003  0.257659  0.314828  1
  O  O137  1  0.001034  0.624058  0.277993  1
  O  O138  1  0.499743  0.876190  0.277873  1
  O  O139  1  0.072079  0.500127  0.277525  1
  O  O140  1  0.070512  0.500314  0.233606  1
  O  O141  1  0.429098  0.001069  0.277652  1
  O  O142  1  0.429279  -0.000000  0.233687  1
  O  O143  1  0.072231  0.635081  0.255584  1
  O  O144  1  0.428557  0.135821  0.255741  1
  O  O145  1  0.427852  0.866211  0.255627  1
  O  O146  1  0.072179  0.365353  0.255567  1
  O  O147  1  0.001013  0.376215  0.277966  1
  O  O148  1  0.589219  0.169764  0.290213  1
  O  O149  1  0.589291  0.169400  0.221277  1
  O  O150  1  0.913089  0.670528  0.290767  1
  O  O151  1  0.910691  0.669974  0.221646  1
  O  O152  1  0.910716  0.330425  0.221613  1
  O  O153  1  0.912961  0.329778  0.290666  1
  O  O154  1  0.588778  0.829610  0.221369  1
  O  O155  1  0.588028  0.828943  0.290398  1
  O  O156  1  0.650725  0.243239  0.314735  1
  O  O157  1  0.650218  0.242793  0.196684  1
  O  O158  1  0.851064  0.742567  0.315031  1
  O  O159  1  0.849994  0.742292  0.196849  1
  O  O160  1  0.850032  0.257787  0.196838  1
  O  O161  1  0.851086  0.256873  0.314905  1
  O  O162  1  0.650198  0.756881  0.196796  1
  O  O163  1  0.650571  0.756207  0.314711  1
  O  O164  1  -0.000000  0.624271  0.233802  1
  O  O165  1  0.571155  0.000000  0.277808  1
  O  O166  1  0.571396  -0.000000  0.233862  1
  O  O167  1  0.929914  0.500220  0.278147  1
  O  O168  1  0.928244  0.500448  0.234225  1
  O  O169  1  0.572624  0.134146  0.255775  1
  O  O170  1  0.928156  0.635233  0.256211  1
  O  O171  1  0.928152  0.365444  0.256148  1
  O  O172  1  0.571895  0.864526  0.255877  1
  O  O173  1  0.500542  0.124179  0.277858  1
  O  O174  1  0.000000  0.376531  0.233754  1
  O  O175  1  0.500616  0.124137  0.233642  1
  O  O176  1  0.500080  0.876145  0.233634  1
  O  O177  1  0.090068  0.169464  0.401511  1
  O  O178  1  0.411065  0.668586  0.401379  1
  O  O179  1  0.412681  0.329154  0.401233  1
  O  O180  1  0.089841  0.829929  0.401552  1
  O  O181  1  0.098175  0.592188  0.318911  1
  O  O182  1  0.099290  0.092066  0.372583  1
  O  O183  1  0.404383  0.091941  0.319249  1
  O  O184  1  0.405278  0.592667  0.372242  1
  O  O185  1  0.405403  0.407748  0.372346  1
  O  O186  1  0.404463  0.907217  0.319382  1
  O  O187  1  0.097535  0.907681  0.372675  1
  O  O188  1  0.096123  0.407651  0.318886  1
  O  O189  1  0.151179  0.244295  0.377020  1
  O  O190  1  0.350667  0.742790  0.376767  1
  O  O191  1  0.351306  0.256961  0.376775  1
  O  O192  1  0.150873  0.756705  0.376826  1
  O  O193  1  0.051083  0.750942  0.317208  1
  O  O194  1  0.051294  0.250019  0.374402  1
  O  O195  1  0.450539  0.251235  0.317960  1
  O  O196  1  0.450593  0.752454  0.374515  1
  O  O197  1  0.450858  0.247957  0.373762  1
  O  O198  1  0.450923  0.748381  0.316981  1
  O  O199  1  0.050898  0.748491  0.374564  1
  O  O200  1  0.051111  0.247302  0.316989  1
  O  O201  1  0.004011  0.749282  0.345890  1
  O  O202  1  0.004348  0.250214  0.345698  1
  O  O203  1  0.497449  0.749537  0.345764  1
  O  O204  1  0.002443  0.901536  0.328260  1
  O  O205  1  0.499698  0.624075  0.413745  1
  O  O206  1  0.072002  -0.000000  0.414053  1
  O  O207  1  0.429056  0.499188  0.413938  1
  O  O208  1  0.192405  0.400974  0.364286  1
  O  O209  1  0.192988  0.900827  0.327192  1
  O  O210  1  0.309415  0.900573  0.364050  1
  O  O211  1  0.309882  0.400508  0.327606  1
  O  O212  1  0.310188  0.598843  0.327568  1
  O  O213  1  0.309714  0.099131  0.364122  1
  O  O214  1  0.191934  0.099780  0.327373  1
  O  O215  1  0.191328  0.599616  0.364054  1
  O  O216  1  0.145195  0.497783  0.341928  1
  O  O217  1  0.142544  0.998212  0.348671  1
  O  O218  1  0.342832  -0.000000  0.339355  1
  O  O219  1  0.344629  0.499679  0.352158  1
  O  O220  1  0.245681  0.500382  0.344193  1
  O  O221  1  0.243958  0.000000  0.347901  1
  O  O222  1  0.182050  0.750543  0.345685  1
  O  O223  1  0.182256  0.250004  0.345921  1
  O  O224  1  0.319651  0.249719  0.345837  1
  O  O225  1  0.319569  0.750002  0.345746  1
  O  O226  1  0.250746  0.749590  0.368725  1
  O  O227  1  0.250869  0.250100  0.322845  1
  O  O228  1  0.251185  0.250164  0.368921  1
  O  O229  1  0.250934  0.748977  0.322696  1
  O  O230  1  0.044182  0.501425  0.340484  1
  O  O231  1  0.042166  0.001022  0.351842  1
  O  O232  1  0.442376  0.000000  0.344090  1
  O  O233  1  0.444238  0.499823  0.347661  1
  O  O234  1  0.002715  0.401299  0.363617  1
  O  O235  1  0.001096  0.124128  0.413600  1
  O  O236  1  0.000000  0.876023  0.413637  1
  O  O237  1  0.001671  0.597985  0.363777  1
  O  O238  1  0.001647  0.097815  0.328112  1
  O  O239  1  0.587836  0.671697  0.401228  1
  O  O240  1  0.913156  0.170371  0.400835  1
  O  O241  1  0.912777  0.829913  0.400960  1
  O  O242  1  0.589314  0.330494  0.401391  1
  O  O243  1  0.597231  0.092616  0.319110  1
  O  O244  1  0.597232  0.591534  0.372656  1
  O  O245  1  0.905805  0.592570  0.319665  1
  O  O246  1  0.904799  0.092432  0.371934  1
  O  O247  1  0.904469  0.907624  0.372049  1
  O  O248  1  0.905147  0.407561  0.319551  1
  O  O249  1  0.595742  0.407091  0.372465  1
  O  O250  1  0.598696  0.908300  0.319066  1
  O  O251  1  0.650256  0.743222  0.376800  1
  O  O252  1  0.851298  0.243273  0.376626  1
  O  O253  1  0.850751  0.757034  0.376752  1
  O  O254  1  0.650891  0.257677  0.376848  1
  O  O255  1  0.550823  0.251830  0.317273  1
  O  O256  1  0.550845  0.750648  0.373435  1
  O  O257  1  0.950758  0.752614  0.318196  1
  O  O258  1  0.950992  0.251629  0.373366  1
  O  O259  1  0.950470  0.748282  0.373531  1
  O  O260  1  0.950734  0.247902  0.318074  1
  O  O261  1  0.551118  0.246660  0.374343  1
  O  O262  1  0.551187  0.750006  0.318185  1
  O  O263  1  0.503084  0.250589  0.345834  1
  O  O264  1  0.928101  0.865483  0.435473  1
  O  O265  1  0.928232  0.135282  0.435394  1
  O  O266  1  0.501168  0.401857  0.327938  1
  O  O267  1  0.571236  0.501136  0.413805  1
  O  O268  1  0.929982  0.000000  0.413467  1
  O  O269  1  0.571857  0.635861  0.435765  1
  O  O270  1  0.691857  0.900707  0.364317  1
  O  O271  1  0.691681  0.400386  0.327363  1
  O  O272  1  0.809789  0.400921  0.364065  1
  O  O273  1  0.809057  0.900423  0.327480  1
  O  O274  1  0.809214  0.099135  0.327464  1
  O  O275  1  0.809332  0.599402  0.364135  1
  O  O276  1  0.691338  0.599152  0.327432  1
  O  O277  1  0.692439  0.099751  0.364417  1
  O  O278  1  0.642336  0.001428  0.343008  1
  O  O279  1  0.645369  0.498812  0.349738  1
  O  O280  1  0.844700  0.500517  0.339662  1
  O  O281  1  0.842848  0.000000  0.352079  1
  O  O282  1  0.743778  0.000000  0.343764  1
  O  O283  1  0.745645  0.499852  0.347296  1
  O  O284  1  0.682207  0.249686  0.345812  1
  O  O285  1  0.681888  0.750267  0.345786  1
  O  O286  1  0.818959  0.750150  0.345866  1
  O  O287  1  0.819265  0.249935  0.345770  1
  O  O288  1  0.750899  0.250579  0.368884  1
  O  O289  1  0.750660  0.749181  0.322746  1
  O  O290  1  0.750372  0.749916  0.368912  1
  O  O291  1  0.750781  0.250160  0.322708  1
  O  O292  1  0.541980  0.998862  0.339933  1
  O  O293  1  0.544209  0.501452  0.350811  1
  O  O294  1  0.944401  0.499089  0.344225  1
  O  O295  1  0.942637  -0.000000  0.347247  1
  O  O296  1  0.501137  0.097820  0.363371  1
  O  O297  1  0.500627  0.598586  0.327826  1
  O  O298  1  0.500588  0.901473  0.363434  1
  O  O299  1  0.500585  0.376271  0.413740  1
  O  O300  1  0.572672  0.366203  0.435798  1
  O  O301  1  0.087549  0.170949  0.470508  1
  O  O302  1  0.411670  0.669817  0.470430  1
  O  O303  1  0.412361  0.329144  0.470448  1
  O  O304  1  0.087407  0.829434  0.470501  1
  O  O305  1  0.095008  0.092322  0.499266  1
  O  O306  1  0.094979  0.592352  0.552406  1
  O  O307  1  0.404113  0.591989  0.499237  1
  O  O308  1  0.403688  0.091824  0.552596  1
  O  O309  1  0.405051  0.907397  0.552244  1
  O  O310  1  0.404852  0.407549  0.499268  1
  O  O311  1  0.095119  0.407927  0.552422  1
  O  O312  1  0.095112  0.907918  0.499254  1
  O  O313  1  0.149915  0.242062  0.494912  1
  O  O314  1  0.350001  0.742857  0.494860  1
  O  O315  1  0.350290  0.257356  0.494912  1
  O  O316  1  0.149721  0.757861  0.494872  1
  O  O317  1  0.050279  0.252153  0.498092  1
  O  O318  1  0.050150  0.752111  0.553572  1
  O  O319  1  0.449681  0.751077  0.497859  1
  O  O320  1  0.449747  0.250747  0.553647  1
  O  O321  1  0.449881  0.747931  0.553859  1
  O  O322  1  0.449949  0.248087  0.497959  1
  O  O323  1  0.050219  0.248242  0.553615  1
  O  O324  1  0.050108  0.748269  0.498073  1
  O  O325  1  0.427793  0.633968  0.435937  1
  O  O326  1  0.499435  0.901652  0.507898  1
  O  O327  1  0.070534  -0.000000  0.458000  1
  O  O328  1  0.429270  0.499220  0.457908  1
  O  O329  1  0.072320  0.134943  0.436009  1
  O  O330  1  0.428612  0.364355  0.435880  1
  O  O331  1  0.072142  0.865281  0.436038  1
  O  O332  1  0.190289  0.900521  0.544194  1
  O  O333  1  0.190260  0.400494  0.507470  1
  O  O334  1  0.308524  0.400644  0.544223  1
  O  O335  1  0.308535  0.900701  0.507434  1
  O  O336  1  0.308782  0.099634  0.507478  1
  O  O337  1  0.308822  0.599562  0.544168  1
  O  O338  1  0.190174  0.599451  0.507433  1
  O  O339  1  0.190208  0.099471  0.544232  1
  O  O340  1  0.151312  0.000000  0.520418  1
  O  O341  1  0.151266  0.500135  0.531246  1
  O  O342  1  0.349525  0.499484  0.520755  1
  O  O343  1  0.349602  0.000000  0.530871  1
  O  O344  1  0.250589  0.000000  0.526301  1
  O  O345  1  0.250545  0.500287  0.525368  1
  O  O346  1  0.181350  0.250003  0.525855  1
  O  O347  1  0.181242  0.750015  0.525813  1
  O  O348  1  0.318526  0.750109  0.525796  1
  O  O349  1  0.318678  0.250072  0.525869  1
  O  O350  1  0.249977  0.249463  0.548899  1
  O  O351  1  0.249856  0.749603  0.502766  1
  O  O352  1  0.249946  0.750388  0.548845  1
  O  O353  1  0.250085  0.250589  0.502821  1
  O  O354  1  0.050637  -0.000000  0.522797  1
  O  O355  1  0.050600  0.499913  0.528882  1
  O  O356  1  0.449712  0.500663  0.522668  1
  O  O357  1  0.449844  0.002369  0.529070  1
  O  O358  1  0.499936  0.401462  0.543827  1
  O  O359  1  0.588660  0.670468  0.470307  1
  O  O360  1  0.910792  0.170094  0.469957  1
  O  O361  1  0.910641  0.830532  0.470004  1
  O  O362  1  0.589391  0.330694  0.470257  1
  O  O363  1  0.595077  0.592848  0.499244  1
  O  O364  1  0.595229  0.092717  0.552350  1
  O  O365  1  0.904755  0.092162  0.498869  1
  O  O366  1  0.904821  0.592190  0.552793  1
  O  O367  1  0.904990  0.407696  0.552725  1
  O  O368  1  0.904998  0.907654  0.498977  1
  O  O369  1  0.596166  0.907975  0.552627  1
  O  O370  1  0.596194  0.408103  0.499128  1
  O  O371  1  0.650048  0.742834  0.494900  1
  O  O372  1  0.850126  0.242457  0.494759  1
  O  O373  1  0.849918  0.757923  0.494776  1
  O  O374  1  0.650361  0.256990  0.494835  1
  O  O375  1  0.550075  0.752769  0.497320  1
  O  O376  1  0.949982  0.251869  0.497075  1
  O  O377  1  0.949874  0.752018  0.554615  1
  O  O378  1  0.949931  0.247852  0.554632  1
  O  O379  1  0.949816  0.747773  0.497032  1
  O  O380  1  0.550277  0.748546  0.554313  1
  O  O381  1  0.550349  0.248803  0.497220  1
  O  O382  1  0.501847  0.750002  0.525834  1
  O  O383  1  0.502650  0.250153  0.525828  1
  O  O384  1  0.996800  0.750019  0.525824  1
  O  O385  1  0.501156  0.098630  0.507865  1
  O  O386  1  0.000000  0.901670  0.543731  1
  O  O387  1  0.000000  0.401629  0.507933  1
  O  O388  1  0.500036  0.624043  0.457960  1
  O  O389  1  -0.000000  0.598395  0.507906  1
  O  O390  1  -0.000000  0.876532  0.457859  1
  O  O391  1  0.571390  0.500902  0.457742  1
  O  O392  1  0.928268  0.000000  0.457387  1
  O  O393  1  0.691419  0.400628  0.544127  1
  O  O394  1  0.691466  0.900450  0.507524  1
  O  O395  1  0.810317  0.900735  0.544132  1
  O  O396  1  0.810281  0.400739  0.507557  1
  O  O397  1  0.810225  0.599472  0.507566  1
  O  O398  1  0.810187  0.099458  0.544116  1
  O  O399  1  0.691681  0.099323  0.507496  1
  O  O400  1  0.691701  0.599464  0.544196  1
  O  O401  1  0.650667  0.500757  0.520674  1
  O  O402  1  0.650721  0.000000  0.530999  1
  O  O403  1  0.848806  0.000000  0.520176  1
  O  O404  1  0.848762  0.500055  0.531516  1
  O  O405  1  0.749655  0.499926  0.525360  1
  O  O406  1  0.749681  0.000000  0.526308  1
  O  O407  1  0.681412  0.750019  0.525873  1
  O  O408  1  0.681564  0.249999  0.525802  1
  O  O409  1  0.819263  0.250056  0.525830  1
  O  O410  1  0.819139  0.750066  0.525845  1
  O  O411  1  0.750240  0.750957  0.548832  1
  O  O412  1  0.750378  0.250705  0.502852  1
  O  O413  1  0.750277  0.249489  0.548788  1
  O  O414  1  0.750140  0.749187  0.502886  1
  O  O415  1  0.550546  0.498911  0.522586  1
  O  O416  1  0.550595  0.998246  0.529096  1
  O  O417  1  0.949324  0.000000  0.522453  1
  O  O418  1  0.949288  0.500368  0.529213  1
  O  O419  1  0.550157  0.252376  0.554478  1
  O  O420  1  0.996970  0.250040  0.525856  1
  O  O421  1  0.500651  0.376045  0.457951  1
  O  O422  1  0.500690  0.598472  0.543799  1
  O  O423  1  0.000000  0.098399  0.543769  1
  O  O424  1  0.000000  0.124288  0.457801  1
  O  O425  1  0.089787  0.670180  0.650143  1
  O  O426  1  0.087457  0.671018  0.581155  1
  O  O427  1  0.412531  0.170903  0.650467  1
  O  O428  1  0.412258  0.171083  0.581276  1
  O  O429  1  0.411760  0.830401  0.581177  1
  O  O430  1  0.410978  0.831834  0.650233  1
  O  O431  1  0.087495  0.329528  0.581172  1
  O  O432  1  0.089869  0.329875  0.650106  1
  O  O433  1  0.150949  0.744013  0.674688  1
  O  O434  1  0.149794  0.742186  0.556757  1
  O  O435  1  0.350964  0.242985  0.674910  1
  O  O436  1  0.350144  0.243206  0.556838  1
  O  O437  1  0.350141  0.757555  0.556722  1
  O  O438  1  0.350925  0.756441  0.674800  1
  O  O439  1  0.149840  0.257959  0.556796  1
  O  O440  1  0.151003  0.257659  0.674897  1
  O  O441  1  0.001034  0.624058  0.638063  1
  O  O442  1  0.499743  0.876190  0.637943  1
  O  O443  1  0.072079  0.500127  0.637594  1
  O  O444  1  0.070512  0.500314  0.593675  1
  O  O445  1  0.429098  0.001069  0.637722  1
  O  O446  1  0.429279  -0.000000  0.593757  1
  O  O447  1  0.072231  0.635081  0.615654  1
  O  O448  1  0.428557  0.135821  0.615810  1
  O  O449  1  0.427852  0.866211  0.615697  1
  O  O450  1  0.072179  0.365353  0.615637  1
  O  O451  1  0.001013  0.376215  0.638036  1
  O  O452  1  0.589219  0.169764  0.650282  1
  O  O453  1  0.589291  0.169400  0.581347  1
  O  O454  1  0.913089  0.670528  0.650837  1
  O  O455  1  0.910691  0.669974  0.581716  1
  O  O456  1  0.910716  0.330425  0.581683  1
  O  O457  1  0.912961  0.329778  0.650735  1
  O  O458  1  0.588778  0.829610  0.581438  1
  O  O459  1  0.588028  0.828943  0.650467  1
  O  O460  1  0.650725  0.243239  0.674805  1
  O  O461  1  0.650218  0.242793  0.556753  1
  O  O462  1  0.851064  0.742567  0.675100  1
  O  O463  1  0.849994  0.742292  0.556919  1
  O  O464  1  0.850032  0.257787  0.556907  1
  O  O465  1  0.851086  0.256873  0.674975  1
  O  O466  1  0.650198  0.756881  0.556865  1
  O  O467  1  0.650571  0.756207  0.674780  1
  O  O468  1  -0.000000  0.624271  0.593872  1
  O  O469  1  0.571155  0.000000  0.637878  1
  O  O470  1  0.571396  -0.000000  0.593931  1
  O  O471  1  0.929914  0.500220  0.638217  1
  O  O472  1  0.928244  0.500448  0.594295  1
  O  O473  1  0.572624  0.134146  0.615845  1
  O  O474  1  0.928156  0.635233  0.616280  1
  O  O475  1  0.928152  0.365444  0.616218  1
  O  O476  1  0.571895  0.864526  0.615946  1
  O  O477  1  0.500542  0.124179  0.637928  1
  O  O478  1  0.000000  0.376531  0.593823  1
  O  O479  1  0.500616  0.124137  0.593712  1
  O  O480  1  0.500080  0.876145  0.593703  1
  O  O481  1  0.090068  0.169464  0.761581  1
  O  O482  1  0.411065  0.668586  0.761449  1
  O  O483  1  0.412681  0.329154  0.761302  1
  O  O484  1  0.089841  0.829929  0.761622  1
  O  O485  1  0.098175  0.592188  0.678980  1
  O  O486  1  0.099290  0.092066  0.732652  1
  O  O487  1  0.404383  0.091941  0.679319  1
  O  O488  1  0.405278  0.592667  0.732312  1
  O  O489  1  0.405403  0.407748  0.732416  1
  O  O490  1  0.404463  0.907217  0.679451  1
  O  O491  1  0.097535  0.907681  0.732745  1
  O  O492  1  0.096123  0.407651  0.678955  1
  O  O493  1  0.151179  0.244295  0.737090  1
  O  O494  1  0.350667  0.742790  0.736837  1
  O  O495  1  0.351306  0.256961  0.736845  1
  O  O496  1  0.150873  0.756705  0.736895  1
  O  O497  1  0.051083  0.750942  0.677278  1
  O  O498  1  0.051294  0.250019  0.734472  1
  O  O499  1  0.450539  0.251235  0.678030  1
  O  O500  1  0.450593  0.752454  0.734584  1
  O  O501  1  0.450858  0.247957  0.733831  1
  O  O502  1  0.450923  0.748381  0.677051  1
  O  O503  1  0.050898  0.748491  0.734634  1
  O  O504  1  0.051111  0.247302  0.677058  1
  O  O505  1  0.004011  0.749282  0.705960  1
  O  O506  1  0.004348  0.250214  0.705767  1
  O  O507  1  0.497449  0.749537  0.705834  1
  O  O508  1  0.002443  0.901536  0.688329  1
  O  O509  1  0.499698  0.624075  0.773815  1
  O  O510  1  0.429056  0.499188  0.774008  1
  O  O511  1  0.192405  0.400974  0.724355  1
  O  O512  1  0.192988  0.900827  0.687261  1
  O  O513  1  0.309415  0.900573  0.724120  1
  O  O514  1  0.309882  0.400508  0.687675  1
  O  O515  1  0.310188  0.598843  0.687638  1
  O  O516  1  0.309714  0.099131  0.724191  1
  O  O517  1  0.191934  0.099780  0.687442  1
  O  O518  1  0.191328  0.599616  0.724123  1
  O  O519  1  0.145195  0.497783  0.701997  1
  O  O520  1  0.142544  0.998212  0.708740  1
  O  O521  1  0.342832  0.000000  0.699424  1
  O  O522  1  0.344629  0.499679  0.712228  1
  O  O523  1  0.245681  0.500382  0.704263  1
  O  O524  1  0.243958  0.000000  0.707971  1
  O  O525  1  0.182050  0.750543  0.705755  1
  O  O526  1  0.182256  0.250004  0.705991  1
  O  O527  1  0.319651  0.249719  0.705907  1
  O  O528  1  0.319569  0.750002  0.705816  1
  O  O529  1  0.250746  0.749590  0.728795  1
  O  O530  1  0.250869  0.250100  0.682915  1
  O  O531  1  0.251185  0.250164  0.728990  1
  O  O532  1  0.250934  0.748977  0.682766  1
  O  O533  1  0.044182  0.501425  0.700553  1
  O  O534  1  0.042166  0.001022  0.711911  1
  O  O535  1  0.442376  0.000000  0.704159  1
  O  O536  1  0.444238  0.499823  0.707730  1
  O  O537  1  0.002715  0.401299  0.723686  1
  O  O538  1  0.001671  0.597985  0.723846  1
  O  O539  1  0.001647  0.097815  0.688181  1
  O  O540  1  0.587836  0.671697  0.761298  1
  O  O541  1  0.913156  0.170371  0.760904  1
  O  O542  1  0.912777  0.829913  0.761029  1
  O  O543  1  0.589314  0.330494  0.761460  1
  O  O544  1  0.597231  0.092616  0.679179  1
  O  O545  1  0.597232  0.591534  0.732726  1
  O  O546  1  0.905805  0.592570  0.679735  1
  O  O547  1  0.904799  0.092432  0.732004  1
  O  O548  1  0.904469  0.907624  0.732119  1
  O  O549  1  0.905147  0.407561  0.679621  1
  O  O550  1  0.595742  0.407091  0.732534  1
  O  O551  1  0.598696  0.908300  0.679135  1
  O  O552  1  0.650256  0.743222  0.736869  1
  O  O553  1  0.851298  0.243273  0.736696  1
  O  O554  1  0.850751  0.757034  0.736822  1
  O  O555  1  0.650891  0.257677  0.736918  1
  O  O556  1  0.550823  0.251830  0.677343  1
  O  O557  1  0.550845  0.750648  0.733505  1
  O  O558  1  0.950758  0.752614  0.678266  1
  O  O559  1  0.950992  0.251629  0.733436  1
  O  O560  1  0.950470  0.748282  0.733600  1
  O  O561  1  0.950734  0.247902  0.678144  1
  O  O562  1  0.551118  0.246660  0.734412  1
  O  O563  1  0.551187  0.750006  0.678254  1
  O  O564  1  0.503084  0.250589  0.705904  1
  O  O565  1  0.501168  0.401857  0.688007  1
  O  O566  1  0.571236  0.501136  0.773875  1
  O  O567  1  0.571857  0.635861  0.795835  1
  O  O568  1  0.691857  0.900707  0.724386  1
  O  O569  1  0.691681  0.400386  0.687432  1
  O  O570  1  0.809789  0.400921  0.724134  1
  O  O571  1  0.809057  0.900423  0.687549  1
  O  O572  1  0.809214  0.099135  0.687533  1
  O  O573  1  0.809332  0.599402  0.724205  1
  O  O574  1  0.691338  0.599152  0.687502  1
  O  O575  1  0.692439  0.099751  0.724487  1
  O  O576  1  0.642336  0.001428  0.703078  1
  O  O577  1  0.645369  0.498812  0.709807  1
  O  O578  1  0.844700  0.500517  0.699732  1
  O  O579  1  0.842848  0.000000  0.712149  1
  O  O580  1  0.743778  0.000000  0.703833  1
  O  O581  1  0.745645  0.499852  0.707365  1
  O  O582  1  0.682207  0.249686  0.705882  1
  O  O583  1  0.681888  0.750267  0.705856  1
  O  O584  1  0.818959  0.750150  0.705936  1
  O  O585  1  0.819265  0.249935  0.705840  1
  O  O586  1  0.750899  0.250579  0.728953  1
  O  O587  1  0.750660  0.749181  0.682816  1
  O  O588  1  0.750372  0.749916  0.728981  1
  O  O589  1  0.750781  0.250160  0.682778  1
  O  O590  1  0.541980  0.998862  0.700003  1
  O  O591  1  0.544209  0.501452  0.710881  1
  O  O592  1  0.944401  0.499089  0.704294  1
  O  O593  1  0.942637  -0.000000  0.707317  1
  O  O594  1  0.501137  0.097820  0.723441  1
  O  O595  1  0.500627  0.598586  0.687896  1
  O  O596  1  0.500588  0.901473  0.723504  1
  O  O597  1  0.500585  0.376271  0.773809  1
  O  O598  1  0.572672  0.366203  0.795868  1
  O  O599  1  0.427793  0.633968  0.796007  1
  O  O600  1  0.428612  0.364355  0.795949  1
  Si  Si601  1  0.401745  0.499804  0.150381  1
  Si  Si602  1  0.401729  -0.000000  0.181151  1
  Si  Si603  1  0.098352  -0.000000  0.150379  1
  Si  Si604  1  0.304859  0.000000  0.157120  1
  Si  Si605  1  0.098325  0.500112  0.181156  1
  Si  Si606  1  0.096416  0.192495  0.130200  1
  Si  Si607  1  0.403113  0.692005  0.130119  1
  Si  Si608  1  0.403593  0.307516  0.130150  1
  Si  Si609  1  0.096300  0.807753  0.130185  1
  Si  Si610  1  0.439350  0.610507  0.095503  1
  Si  Si611  1  0.439899  0.388161  0.095461  1
  Si  Si612  1  0.192815  0.213678  0.184561  1
  Si  Si613  1  0.192723  0.713669  0.146969  1
  Si  Si614  1  0.306965  0.713831  0.184494  1
  Si  Si615  1  0.307081  0.213904  0.147025  1
  Si  Si616  1  0.306825  0.786420  0.146968  1
  Si  Si617  1  0.306926  0.286375  0.184559  1
  Si  Si618  1  0.192895  0.286294  0.147013  1
  Si  Si619  1  0.192798  0.786318  0.184514  1
  Si  Si620  1  0.194963  -0.000000  0.174441  1
  Si  Si621  1  0.194923  0.500029  0.157086  1
  Si  Si622  1  0.304844  0.500031  0.174391  1
  Si  Si623  1  -0.000000  0.500049  0.157866  1
  Si  Si624  1  -0.000000  -0.000000  0.173665  1
  Si  Si625  1  0.596906  0.692587  0.130007  1
  Si  Si626  1  0.903059  0.192106  0.129706  1
  Si  Si627  1  0.902951  0.807980  0.129730  1
  Si  Si628  1  0.597499  0.308200  0.129948  1
  Si  Si629  1  0.560746  0.611942  0.095341  1
  Si  Si630  1  0.561293  0.389607  0.095363  1
  Si  Si631  1  0.693313  0.713746  0.184554  1
  Si  Si632  1  0.693431  0.213595  0.146992  1
  Si  Si633  1  0.807476  0.213639  0.184513  1
  Si  Si634  1  0.807388  0.713634  0.147023  1
  Si  Si635  1  0.807555  0.286564  0.147010  1
  Si  Si636  1  0.807463  0.786554  0.184530  1
  Si  Si637  1  0.693179  0.786182  0.147040  1
  Si  Si638  1  0.693297  0.286365  0.184484  1
  Si  Si639  1  0.695294  0.500136  0.174336  1
  Si  Si640  1  0.695324  -0.000000  0.157190  1
  Si  Si641  1  0.805479  0.000000  0.174314  1
  Si  Si642  1  0.805467  0.500086  0.157226  1
  Si  Si643  1  0.598460  0.500297  0.150287  1
  Si  Si644  1  0.598524  -0.000000  0.181249  1
  Si  Si645  1  0.901615  0.000000  0.150043  1
  Si  Si646  1  0.901604  0.500055  0.181498  1
  Si  Si647  1  -0.000000  0.211876  0.184626  1
  Si  Si648  1  0.000000  0.711875  0.146913  1
  Si  Si649  1  0.500859  0.212140  0.146908  1
  Si  Si650  1  0.500535  0.711967  0.184617  1
  Si  Si651  1  0.500451  0.287941  0.184618  1
  Si  Si652  1  -0.000000  0.788211  0.184591  1
  Si  Si653  1  0.000000  0.288151  0.146944  1
  Si  Si654  1  0.500121  0.788169  0.146924  1
  Si  Si655  1  0.500253  -0.000000  0.157792  1
  Si  Si656  1  0.500223  0.499938  0.173762  1
  Si  Si657  1  0.061622  0.388951  0.275247  1
  Si  Si658  1  0.060159  0.389118  0.235979  1
  Si  Si659  1  0.439133  0.889895  0.275273  1
  Si  Si660  1  0.439383  0.889610  0.235988  1
  Si  Si661  1  0.098240  0.692207  0.309838  1
  Si  Si662  1  0.096314  0.692549  0.201325  1
  Si  Si663  1  0.404090  0.192103  0.310196  1
  Si  Si664  1  0.403251  0.192281  0.201432  1
  Si  Si665  1  0.403409  0.807783  0.201354  1
  Si  Si666  1  0.403624  0.808209  0.309928  1
  Si  Si667  1  0.096406  0.307778  0.201354  1
  Si  Si668  1  0.097995  0.307675  0.309821  1
  Si  Si669  1  0.061625  0.611309  0.275257  1
  Si  Si670  1  0.060185  0.611513  0.235987  1
  Si  Si671  1  0.439808  0.112161  0.275394  1
  Si  Si672  1  0.439876  0.111957  0.236096  1
  Si  Si673  1  0.560516  0.888216  0.275512  1
  Si  Si674  1  0.560778  0.888323  0.236228  1
  Si  Si675  1  0.597758  0.192334  0.309946  1
  Si  Si676  1  0.597191  0.192219  0.201520  1
  Si  Si677  1  0.904524  0.692453  0.310524  1
  Si  Si678  1  0.902981  0.692094  0.201829  1
  Si  Si679  1  0.903044  0.307947  0.201811  1
  Si  Si680  1  0.904362  0.307673  0.310411  1
  Si  Si681  1  0.597241  0.807839  0.201595  1
  Si  Si682  1  0.597589  0.807906  0.310139  1
  Si  Si683  1  0.561192  0.110604  0.275410  1
  Si  Si684  1  0.561272  0.110659  0.236137  1
  Si  Si685  1  0.940242  0.611409  0.275803  1
  Si  Si686  1  0.938779  0.611548  0.236528  1
  Si  Si687  1  0.938752  0.389244  0.236470  1
  Si  Si688  1  0.940236  0.389059  0.275745  1
  Si  Si689  1  0.496646  0.000000  0.353382  1
  Si  Si690  1  0.002230  0.287767  0.364556  1
  Si  Si691  1  0.001980  0.788137  0.327114  1
  Si  Si692  1  0.001791  0.211229  0.326934  1
  Si  Si693  1  0.497644  0.500330  0.337890  1
  Si  Si694  1  0.098628  0.191773  0.381765  1
  Si  Si695  1  0.403603  0.691901  0.381609  1
  Si  Si696  1  0.404466  0.307672  0.381430  1
  Si  Si697  1  0.098095  0.807755  0.381778  1
  Si  Si698  1  0.061687  0.111153  0.416335  1
  Si  Si699  1  0.439084  0.610394  0.416289  1
  Si  Si700  1  0.439861  0.388134  0.416228  1
  Si  Si701  1  0.061559  0.888815  0.416353  1
  Si  Si702  1  0.193633  0.713749  0.364442  1
  Si  Si703  1  0.193802  0.214002  0.327115  1
  Si  Si704  1  0.308125  0.213349  0.364614  1
  Si  Si705  1  0.308021  0.712982  0.327004  1
  Si  Si706  1  0.307939  0.286374  0.327090  1
  Si  Si707  1  0.307753  0.786373  0.364507  1
  Si  Si708  1  0.194106  0.786537  0.326905  1
  Si  Si709  1  0.194191  0.286746  0.364666  1
  Si  Si710  1  0.193075  0.500005  0.354363  1
  Si  Si711  1  0.192469  0.000000  0.337089  1
  Si  Si712  1  0.301889  0.000000  0.354480  1
  Si  Si713  1  0.303093  0.499758  0.337253  1
  Si  Si714  1  0.096193  0.499919  0.330121  1
  Si  Si715  1  0.095737  0.000000  0.361418  1
  Si  Si716  1  0.397872  0.000000  0.330389  1
  Si  Si717  1  0.399424  0.499996  0.361217  1
  Si  Si718  1  0.001598  0.711538  0.364736  1
  Si  Si719  1  0.501208  0.288339  0.326982  1
  Si  Si720  1  0.500243  0.712158  0.326902  1
  Si  Si721  1  0.501348  0.211157  0.364579  1
  Si  Si722  1  0.998347  0.499814  0.353701  1
  Si  Si723  1  0.597142  0.692298  0.381449  1
  Si  Si724  1  0.904539  0.192290  0.381087  1
  Si  Si725  1  0.904053  0.807823  0.381220  1
  Si  Si726  1  0.597637  0.307504  0.381651  1
  Si  Si727  1  0.560471  0.612211  0.416127  1
  Si  Si728  1  0.940305  0.111393  0.415806  1
  Si  Si729  1  0.940173  0.889026  0.415873  1
  Si  Si730  1  0.561252  0.389830  0.416165  1
  Si  Si731  1  0.693901  0.214039  0.364635  1
  Si  Si732  1  0.693550  0.713300  0.327045  1
  Si  Si733  1  0.807417  0.713568  0.364627  1
  Si  Si734  1  0.807723  0.213343  0.327009  1
  Si  Si735  1  0.807562  0.786198  0.327068  1
  Si  Si736  1  0.807912  0.286762  0.364531  1
  Si  Si737  1  0.693726  0.286191  0.327030  1
  Si  Si738  1  0.693417  0.786469  0.364582  1
  Si  Si739  1  0.692286  0.000000  0.354575  1
  Si  Si740  1  0.692948  0.499698  0.337180  1
  Si  Si741  1  0.802804  0.500210  0.354444  1
  Si  Si742  1  0.801571  0.000000  0.337059  1
  Si  Si743  1  0.595430  0.000000  0.330307  1
  Si  Si744  1  0.595890  0.499686  0.361329  1
  Si  Si745  1  0.899556  0.499916  0.330667  1
  Si  Si746  1  0.898045  -0.000000  0.360937  1
  Si  Si747  1  0.997333  0.000000  0.338197  1
  Si  Si748  1  0.500032  0.788030  0.364560  1
  Si  Si749  1  0.401745  0.499804  0.510450  1
  Si  Si750  1  0.401729  0.000000  0.541221  1
  Si  Si751  1  0.098352  0.000000  0.510449  1
  Si  Si752  1  0.304859  0.000000  0.517189  1
  Si  Si753  1  0.098325  0.500112  0.541226  1
  Si  Si754  1  0.096416  0.192495  0.490270  1
  Si  Si755  1  0.403113  0.692005  0.490189  1
  Si  Si756  1  0.403593  0.307516  0.490220  1
  Si  Si757  1  0.096300  0.807753  0.490254  1
  Si  Si758  1  0.060265  0.111470  0.455607  1
  Si  Si759  1  0.439350  0.610507  0.455573  1
  Si  Si760  1  0.439899  0.388161  0.455530  1
  Si  Si761  1  0.060097  0.889080  0.455625  1
  Si  Si762  1  0.192815  0.213678  0.544630  1
  Si  Si763  1  0.192723  0.713669  0.507039  1
  Si  Si764  1  0.306965  0.713831  0.544563  1
  Si  Si765  1  0.307081  0.213904  0.507095  1
  Si  Si766  1  0.306825  0.786420  0.507038  1
  Si  Si767  1  0.306926  0.286375  0.544628  1
  Si  Si768  1  0.192895  0.286294  0.507083  1
  Si  Si769  1  0.192798  0.786318  0.544584  1
  Si  Si770  1  0.194963  0.000000  0.534510  1
  Si  Si771  1  0.194923  0.500029  0.517155  1
  Si  Si772  1  0.304844  0.500031  0.534460  1
  Si  Si773  1  -0.000000  0.500049  0.517936  1
  Si  Si774  1  0.000000  0.000000  0.533735  1
  Si  Si775  1  0.596906  0.692587  0.490077  1
  Si  Si776  1  0.903059  0.192106  0.489776  1
  Si  Si777  1  0.902951  0.807980  0.489800  1
  Si  Si778  1  0.597499  0.308200  0.490018  1
  Si  Si779  1  0.560746  0.611942  0.455411  1
  Si  Si780  1  0.938854  0.111633  0.455077  1
  Si  Si781  1  0.938688  0.889318  0.455149  1
  Si  Si782  1  0.561293  0.389607  0.455433  1
  Si  Si783  1  0.693313  0.713746  0.544623  1
  Si  Si784  1  0.693431  0.213595  0.507061  1
  Si  Si785  1  0.807476  0.213639  0.544582  1
  Si  Si786  1  0.807388  0.713634  0.507092  1
  Si  Si787  1  0.807555  0.286564  0.507079  1
  Si  Si788  1  0.807463  0.786554  0.544600  1
  Si  Si789  1  0.693179  0.786182  0.507110  1
  Si  Si790  1  0.693297  0.286365  0.544553  1
  Si  Si791  1  0.695294  0.500136  0.534405  1
  Si  Si792  1  0.695324  0.000000  0.517260  1
  Si  Si793  1  0.805479  -0.000000  0.534384  1
  Si  Si794  1  0.805467  0.500086  0.517296  1
  Si  Si795  1  0.598460  0.500297  0.510357  1
  Si  Si796  1  0.598524  0.000000  0.541318  1
  Si  Si797  1  0.901615  0.000000  0.510112  1
  Si  Si798  1  0.901604  0.500055  0.541567  1
  Si  Si799  1  0.000000  0.211876  0.544696  1
  Si  Si800  1  -0.000000  0.711875  0.506983  1
  Si  Si801  1  0.500859  0.212140  0.506978  1
  Si  Si802  1  0.500535  0.711967  0.544686  1
  Si  Si803  1  0.500451  0.287941  0.544688  1
  Si  Si804  1  -0.000000  0.788211  0.544661  1
  Si  Si805  1  0.000000  0.288151  0.507014  1
  Si  Si806  1  0.500121  0.788169  0.506994  1
  Si  Si807  1  0.500253  0.000000  0.517862  1
  Si  Si808  1  0.500223  0.499938  0.533832  1
  Si  Si809  1  0.061622  0.388951  0.635316  1
  Si  Si810  1  0.060159  0.389118  0.596049  1
  Si  Si811  1  0.439133  0.889895  0.635342  1
  Si  Si812  1  0.439383  0.889610  0.596058  1
  Si  Si813  1  0.098240  0.692207  0.669907  1
  Si  Si814  1  0.096314  0.692549  0.561394  1
  Si  Si815  1  0.404090  0.192103  0.670265  1
  Si  Si816  1  0.403251  0.192281  0.561502  1
  Si  Si817  1  0.403409  0.807783  0.561423  1
  Si  Si818  1  0.403624  0.808209  0.669998  1
  Si  Si819  1  0.096406  0.307778  0.561424  1
  Si  Si820  1  0.097995  0.307675  0.669890  1
  Si  Si821  1  0.061625  0.611309  0.635327  1
  Si  Si822  1  0.060185  0.611513  0.596057  1
  Si  Si823  1  0.439808  0.112161  0.635464  1
  Si  Si824  1  0.439876  0.111957  0.596166  1
  Si  Si825  1  0.560516  0.888216  0.635581  1
  Si  Si826  1  0.560778  0.888323  0.596297  1
  Si  Si827  1  0.597758  0.192334  0.670016  1
  Si  Si828  1  0.597191  0.192219  0.561589  1
  Si  Si829  1  0.904524  0.692453  0.670593  1
  Si  Si830  1  0.902981  0.692094  0.561899  1
  Si  Si831  1  0.903044  0.307947  0.561880  1
  Si  Si832  1  0.904362  0.307673  0.670481  1
  Si  Si833  1  0.597241  0.807839  0.561664  1
  Si  Si834  1  0.597589  0.807906  0.670209  1
  Si  Si835  1  0.561192  0.110604  0.635479  1
  Si  Si836  1  0.561272  0.110659  0.596206  1
  Si  Si837  1  0.940242  0.611409  0.635873  1
  Si  Si838  1  0.938779  0.611548  0.596597  1
  Si  Si839  1  0.938752  0.389244  0.596539  1
  Si  Si840  1  0.940236  0.389059  0.635815  1
  Si  Si841  1  0.496646  -0.000000  0.713451  1
  Si  Si842  1  0.002230  0.287767  0.724626  1
  Si  Si843  1  0.001980  0.788137  0.687184  1
  Si  Si844  1  0.001791  0.211229  0.687003  1
  Si  Si845  1  0.497644  0.500330  0.697960  1
  Si  Si846  1  0.098628  0.191773  0.741834  1
  Si  Si847  1  0.403603  0.691901  0.741679  1
  Si  Si848  1  0.404466  0.307672  0.741499  1
  Si  Si849  1  0.098095  0.807755  0.741848  1
  Si  Si850  1  0.439084  0.610394  0.776358  1
  Si  Si851  1  0.439861  0.388134  0.776297  1
  Si  Si852  1  0.193633  0.713749  0.724512  1
  Si  Si853  1  0.193802  0.214002  0.687185  1
  Si  Si854  1  0.308125  0.213349  0.724684  1
  Si  Si855  1  0.308021  0.712982  0.687074  1
  Si  Si856  1  0.307939  0.286374  0.687160  1
  Si  Si857  1  0.307753  0.786373  0.724577  1
  Si  Si858  1  0.194106  0.786537  0.686974  1
  Si  Si859  1  0.194191  0.286746  0.724735  1
  Si  Si860  1  0.193075  0.500005  0.714432  1
  Si  Si861  1  0.192469  0.000000  0.697158  1
  Si  Si862  1  0.301889  0.000000  0.714549  1
  Si  Si863  1  0.303093  0.499758  0.697323  1
  Si  Si864  1  0.096193  0.499919  0.690190  1
  Si  Si865  1  0.095737  0.000000  0.721487  1
  Si  Si866  1  0.397872  0.000000  0.690459  1
  Si  Si867  1  0.399424  0.499996  0.721286  1
  Si  Si868  1  0.001598  0.711538  0.724805  1
  Si  Si869  1  0.501208  0.288339  0.687051  1
  Si  Si870  1  0.500243  0.712158  0.686972  1
  Si  Si871  1  0.501348  0.211157  0.724648  1
  Si  Si872  1  0.998347  0.499814  0.713770  1
  Si  Si873  1  0.597142  0.692298  0.741518  1
  Si  Si874  1  0.904539  0.192290  0.741157  1
  Si  Si875  1  0.904053  0.807823  0.741290  1
  Si  Si876  1  0.597637  0.307504  0.741720  1
  Si  Si877  1  0.560471  0.612211  0.776196  1
  Si  Si878  1  0.561252  0.389830  0.776235  1
  Si  Si879  1  0.693901  0.214039  0.724704  1
  Si  Si880  1  0.693550  0.713300  0.687114  1
  Si  Si881  1  0.807417  0.713568  0.724696  1
  Si  Si882  1  0.807723  0.213343  0.687079  1
  Si  Si883  1  0.807562  0.786198  0.687137  1
  Si  Si884  1  0.807912  0.286762  0.724600  1
  Si  Si885  1  0.693726  0.286191  0.687099  1
  Si  Si886  1  0.693417  0.786469  0.724651  1
  Si  Si887  1  0.692286  0.000000  0.714645  1
  Si  Si888  1  0.692948  0.499698  0.697250  1
  Si  Si889  1  0.802804  0.500210  0.714514  1
  Si  Si890  1  0.801571  0.000000  0.697128  1
  Si  Si891  1  0.595430  -0.000000  0.690376  1
  Si  Si892  1  0.595890  0.499686  0.721398  1
  Si  Si893  1  0.899556  0.499916  0.690736  1
  Si  Si894  1  0.898045  0.000000  0.721006  1
  Si  Si895  1  0.997333  -0.000000  0.698266  1
  Si  Si896  1  0.500032  0.788030  0.724630  1
  H  H897  1  0.571857  0.635861  0.064149  1
  H  H898  1  0.572672  0.366203  0.064182  1
  H  H899  1  0.087549  0.170949  0.098892  1
  H  H900  1  0.087407  0.829434  0.098885  1
  H  H901  1  0.427793  0.633968  0.064321  1
  H  H902  1  0.428612  0.364355  0.064263  1
  H  H903  1  0.910792  0.170094  0.098340  1
  H  H904  1  0.910641  0.830532  0.098387  1
  H  H905  1  0.090068  0.169464  0.773127  1
  H  H906  1  0.089841  0.829929  0.773169  1
  H  H907  1  0.913156  0.170371  0.772451  1
  H  H908  1  0.912777  0.829913  0.772576  1
  H  H909  1  0.571857  0.635861  0.807381  1
  H  H910  1  0.572672  0.366203  0.807415  1
  H  H911  1  0.427793  0.633968  0.807554  1
  H  H912  1  0.428612  0.364355  0.807496  1
