# generated using pymatgen
data_Si28H2O57
_symmetry_space_group_name_H-M   'P 1'
_cell_length_a   13.64855836
_cell_length_b   32.66871493
_cell_length_c   91.47062697
_cell_angle_alpha   129.57970072
_cell_angle_beta   90.00000000
_cell_angle_gamma   90.00000000
_symmetry_Int_Tables_number   1
_chemical_formula_structural   Si28H2O57
_chemical_formula_sum   'Si336 H24 O684'
_cell_volume   31434.5927804
_cell_formula_units_Z   12
loop_
 _symmetry_equiv_pos_site_id
 _symmetry_equiv_pos_as_xyz
  1  'x, y, z'
loop_
 _atom_site_type_symbol
 _atom_site_label
 _atom_site_symmetry_multiplicity
 _atom_site_fract_x
 _atom_site_fract_y
 _atom_site_fract_z
 _atom_site_occupancy
  O  O1  1  0.171702  0.850094  0.080766  1
  O  O2  1  0.828053  0.850094  0.080761  1
  O  O3  1  0.328091  0.350097  0.080766  1
  O  O4  1  0.671741  0.350098  0.080761  1
  O  O5  1  0.160202  0.050557  0.122967  1
  O  O6  1  0.160202  0.550557  0.236746  1
  O  O7  1  0.160201  0.449524  0.213757  1
  O  O8  1  0.160201  0.949524  0.099977  1
  O  O9  1  0.128836  -0.000000  0.087741  1
  O  O10  1  0.128836  0.500036  0.201520  1
  O  O11  1  0.131381  0.250042  0.164302  1
  O  O12  1  0.131381  0.750042  0.278081  1
  O  O13  1  0.499872  0.071078  0.149589  1
  O  O14  1  0.499872  0.571078  0.263368  1
  O  O15  1  0.171704  0.149987  0.149007  1
  O  O16  1  0.171704  0.649987  0.262787  1
  O  O17  1  0.171702  0.350095  0.194545  1
  O  O18  1  0.171702  0.850094  0.308324  1
  O  O19  1  0.132872  0.321238  0.160833  1
  O  O20  1  0.132872  0.821237  0.274612  1
  O  O21  1  0.134482  0.085536  0.156132  1
  O  O22  1  0.134482  0.585535  0.269911  1
  O  O23  1  0.365272  0.085540  0.172041  1
  O  O24  1  0.365272  0.585539  0.285821  1
  O  O25  1  0.365272  0.414548  0.246911  1
  O  O26  1  0.365272  0.914548  0.133132  1
  O  O27  1  0.134482  0.414547  0.231002  1
  O  O28  1  0.134482  0.914547  0.117223  1
  O  O29  1  0.306306  0.084848  0.145725  1
  O  O30  1  0.306306  0.584848  0.259504  1
  O  O31  1  0.193443  0.084855  0.182136  1
  O  O32  1  0.193443  0.584855  0.295915  1
  O  O33  1  0.193445  0.415235  0.257318  1
  O  O34  1  0.193445  0.915235  0.143539  1
  O  O35  1  0.306305  0.415233  0.220908  1
  O  O36  1  0.306305  0.915234  0.107129  1
  O  O37  1  0.499873  0.429007  0.231040  1
  O  O38  1  0.499873  0.929007  0.117261  1
  O  O39  1  0.127464  0.000000  0.151121  1
  O  O40  1  0.127464  0.500043  0.264900  1
  O  O41  1  0.372289  -0.000000  0.138144  1
  O  O42  1  0.372289  0.500042  0.251923  1
  O  O43  1  0.132872  0.178849  0.128431  1
  O  O44  1  0.132872  0.678849  0.242210  1
  O  O45  1  0.839547  0.050557  0.122963  1
  O  O46  1  0.839547  0.550557  0.236742  1
  O  O47  1  0.839548  0.449524  0.213753  1
  O  O48  1  0.839548  0.949523  0.099974  1
  O  O49  1  0.000000  0.320860  0.179688  1
  O  O50  1  0.000000  0.820860  0.293467  1
  O  O51  1  0.000000  0.000000  0.107576  1
  O  O52  1  0.000000  0.500039  0.221355  1
  O  O53  1  0.868384  0.250042  0.164299  1
  O  O54  1  0.868384  0.750042  0.278078  1
  O  O55  1  0.828052  0.149987  0.149003  1
  O  O56  1  0.828052  0.649987  0.262782  1
  O  O57  1  0.828053  0.350094  0.194541  1
  O  O58  1  0.828053  0.850094  0.308320  1
  O  O59  1  0.866923  0.178849  0.128427  1
  O  O60  1  0.866923  0.678849  0.242206  1
  O  O61  1  0.634482  0.085539  0.172037  1
  O  O62  1  0.634482  0.585538  0.285816  1
  O  O63  1  0.865272  0.085537  0.156127  1
  O  O64  1  0.865272  0.585537  0.269907  1
  O  O65  1  0.865272  0.414546  0.230998  1
  O  O66  1  0.865272  0.914546  0.117219  1
  O  O67  1  0.634482  0.414550  0.246907  1
  O  O68  1  0.634482  0.914550  0.133128  1
  O  O69  1  0.806306  0.084853  0.182131  1
  O  O70  1  0.806306  0.584853  0.295910  1
  O  O71  1  0.693444  0.084851  0.145721  1
  O  O72  1  0.693444  0.584851  0.259500  1
  O  O73  1  0.693445  0.415231  0.220904  1
  O  O74  1  0.693445  0.915231  0.107124  1
  O  O75  1  0.806305  0.415237  0.257314  1
  O  O76  1  0.806305  0.915237  0.143535  1
  O  O77  1  0.000000  0.071079  0.171999  1
  O  O78  1  0.000000  0.571079  0.285778  1
  O  O79  1  0.000000  0.429009  0.253450  1
  O  O80  1  -0.000000  0.929009  0.139671  1
  O  O81  1  0.627464  -0.000000  0.138139  1
  O  O82  1  0.627464  0.500043  0.251918  1
  O  O83  1  0.872288  -0.000000  0.151116  1
  O  O84  1  0.872288  0.500043  0.264895  1
  O  O85  1  0.000000  0.179223  0.147456  1
  O  O86  1  0.000000  0.679223  0.261236  1
  O  O87  1  0.866922  0.321238  0.160829  1
  O  O88  1  0.866922  0.821238  0.274609  1
  O  O89  1  0.870958  0.000000  0.087737  1
  O  O90  1  0.870958  0.500036  0.201516  1
  O  O91  1  0.339590  0.050560  0.236748  1
  O  O92  1  0.339590  0.550561  0.122969  1
  O  O93  1  0.339544  0.050561  0.189286  1
  O  O94  1  0.339544  0.550561  0.303065  1
  O  O95  1  0.339552  0.449527  0.280076  1
  O  O96  1  0.339552  0.949527  0.166296  1
  O  O97  1  0.339594  0.449526  0.099977  1
  O  O98  1  0.339594  0.949526  0.213756  1
  O  O99  1  0.370958  0.000000  0.201523  1
  O  O100  1  0.370958  0.500048  0.087743  1
  O  O101  1  0.368413  0.250043  0.278081  1
  O  O102  1  0.368413  0.750042  0.164302  1
  O  O103  1  0.368384  0.250043  0.238740  1
  O  O104  1  0.368384  0.750043  0.124961  1
  O  O105  1  0.499912  0.179225  0.261236  1
  O  O106  1  0.499912  0.679225  0.147457  1
  O  O107  1  0.328091  0.149989  0.262788  1
  O  O108  1  0.328091  0.649989  0.149009  1
  O  O109  1  0.328053  0.149990  0.208499  1
  O  O110  1  0.328053  0.649990  0.094720  1
  O  O111  1  0.328052  0.350098  0.254036  1
  O  O112  1  0.328052  0.850098  0.140256  1
  O  O113  1  0.328091  0.350097  0.308324  1
  O  O114  1  0.328091  0.850097  0.194545  1
  O  O115  1  0.366923  0.178848  0.242210  1
  O  O116  1  0.366923  0.678848  0.128431  1
  O  O117  1  0.366922  0.321236  0.274612  1
  O  O118  1  0.366922  0.821237  0.160833  1
  O  O119  1  0.499915  0.000000  0.221356  1
  O  O120  1  0.499915  0.500046  0.107577  1
  O  O121  1  0.499878  0.000000  0.181685  1
  O  O122  1  0.499878  0.500048  0.295464  1
  O  O123  1  0.499883  0.179224  0.223352  1
  O  O124  1  0.499883  0.679225  0.109572  1
  O  O125  1  0.499883  0.320862  0.255582  1
  O  O126  1  0.499883  0.820861  0.141803  1
  O  O127  1  0.499911  0.320861  0.293467  1
  O  O128  1  0.499911  0.820861  0.179688  1
  O  O129  1  0.660247  0.050560  0.236744  1
  O  O130  1  0.660247  0.550561  0.122965  1
  O  O131  1  0.660205  0.050561  0.189282  1
  O  O132  1  0.660205  0.550561  0.303061  1
  O  O133  1  0.660199  0.449527  0.280072  1
  O  O134  1  0.660199  0.949527  0.166293  1
  O  O135  1  0.660245  0.449527  0.099973  1
  O  O136  1  0.660245  0.949527  0.213752  1
  O  O137  1  0.628836  0.000000  0.201519  1
  O  O138  1  0.628836  0.500049  0.087740  1
  O  O139  1  0.631411  0.250043  0.278078  1
  O  O140  1  0.631411  0.750043  0.164299  1
  O  O141  1  0.631381  0.250043  0.238737  1
  O  O142  1  0.631381  0.750043  0.124958  1
  O  O143  1  0.671742  0.149990  0.262784  1
  O  O144  1  0.671742  0.649990  0.149004  1
  O  O145  1  0.671703  0.149991  0.208494  1
  O  O146  1  0.671703  0.649990  0.094715  1
  O  O147  1  0.671703  0.350097  0.254031  1
  O  O148  1  0.671703  0.850098  0.140252  1
  O  O149  1  0.671741  0.350098  0.308320  1
  O  O150  1  0.671741  0.850098  0.194540  1
  O  O151  1  0.632873  0.178848  0.242206  1
  O  O152  1  0.632873  0.678849  0.128427  1
  O  O153  1  0.632871  0.321237  0.274608  1
  O  O154  1  0.632871  0.821237  0.160829  1
  O  O155  1  0.160245  0.050561  0.303067  1
  O  O156  1  0.160245  0.550561  0.189288  1
  O  O157  1  0.160247  0.449527  0.166295  1
  O  O158  1  0.160247  0.949527  0.280074  1
  O  O159  1  0.131411  0.250045  0.124961  1
  O  O160  1  0.131411  0.750045  0.238741  1
  O  O161  1  0.171742  0.149990  0.094720  1
  O  O162  1  0.171742  0.649990  0.208499  1
  O  O163  1  0.171742  0.350098  0.140256  1
  O  O164  1  0.171742  0.850097  0.254035  1
  O  O165  1  0.134522  0.085537  0.285821  1
  O  O166  1  0.134522  0.585537  0.172042  1
  O  O167  1  0.365312  0.085539  0.269913  1
  O  O168  1  0.365312  0.585538  0.156134  1
  O  O169  1  0.365313  0.414550  0.117223  1
  O  O170  1  0.365313  0.914550  0.231002  1
  O  O171  1  0.134522  0.414546  0.133130  1
  O  O172  1  0.134522  0.914546  0.246909  1
  O  O173  1  0.306350  0.084852  0.295915  1
  O  O174  1  0.306350  0.584852  0.182136  1
  O  O175  1  0.193488  0.084852  0.259506  1
  O  O176  1  0.193488  0.584852  0.145727  1
  O  O177  1  0.193489  0.415237  0.107128  1
  O  O178  1  0.193489  0.915237  0.220908  1
  O  O179  1  0.306350  0.415232  0.143537  1
  O  O180  1  0.306350  0.915232  0.257316  1
  O  O181  1  0.499921  0.071078  0.285779  1
  O  O182  1  0.499921  0.571079  0.172000  1
  O  O183  1  0.499922  0.429007  0.139670  1
  O  O184  1  0.499922  0.929008  0.253449  1
  O  O185  1  0.127506  -0.000000  0.251923  1
  O  O186  1  0.127506  0.500042  0.138144  1
  O  O187  1  0.372330  0.000000  0.264900  1
  O  O188  1  0.372330  0.500043  0.151121  1
  O  O189  1  0.839593  0.050560  0.303063  1
  O  O190  1  0.839593  0.550561  0.189284  1
  O  O191  1  0.839591  0.449526  0.166291  1
  O  O192  1  0.839591  0.949527  0.280070  1
  O  O193  1  0.868413  0.250045  0.124958  1
  O  O194  1  0.868413  0.750045  0.238737  1
  O  O195  1  0.000000  0.000000  0.295463  1
  O  O196  1  0.000000  0.500042  0.181683  1
  O  O197  1  0.000000  0.320863  0.141804  1
  O  O198  1  0.000000  0.820863  0.255583  1
  O  O199  1  0.828091  0.149990  0.094715  1
  O  O200  1  0.828091  0.649990  0.208494  1
  O  O201  1  0.828091  0.350097  0.140251  1
  O  O202  1  0.828091  0.850097  0.254031  1
  O  O203  1  0.634522  0.085541  0.269909  1
  O  O204  1  0.634522  0.585541  0.156130  1
  O  O205  1  0.865312  0.085535  0.285817  1
  O  O206  1  0.865312  0.585535  0.172038  1
  O  O207  1  0.865312  0.414547  0.133126  1
  O  O208  1  0.865312  0.914546  0.246905  1
  O  O209  1  0.634521  0.414549  0.117218  1
  O  O210  1  0.634521  0.914549  0.230997  1
  O  O211  1  0.806350  0.084854  0.259502  1
  O  O212  1  0.806350  0.584854  0.145723  1
  O  O213  1  0.693488  0.084850  0.295911  1
  O  O214  1  0.693488  0.584850  0.182132  1
  O  O215  1  0.693488  0.415234  0.143533  1
  O  O216  1  0.693488  0.915234  0.257312  1
  O  O217  1  0.806350  0.415235  0.107124  1
  O  O218  1  0.806350  0.915234  0.220903  1
  O  O219  1  0.000000  0.071079  0.263370  1
  O  O220  1  0.000000  0.571079  0.149590  1
  O  O221  1  0.000000  0.429007  0.117260  1
  O  O222  1  0.000000  0.929007  0.231039  1
  O  O223  1  0.627506  -0.000000  0.264895  1
  O  O224  1  0.627506  0.500043  0.151116  1
  O  O225  1  0.872330  0.000000  0.251918  1
  O  O226  1  0.872330  0.500042  0.138139  1
  O  O227  1  -0.000000  0.179226  0.109572  1
  O  O228  1  0.000000  0.679226  0.223351  1
  O  O229  1  0.160202  0.050557  0.350525  1
  O  O230  1  0.160202  0.550557  0.464305  1
  O  O231  1  0.160201  0.449524  0.441315  1
  O  O232  1  0.160201  0.949524  0.327536  1
  O  O233  1  0.128836  0.000000  0.315299  1
  O  O234  1  0.128836  0.500036  0.429078  1
  O  O235  1  0.131381  0.250042  0.391860  1
  O  O236  1  0.131381  0.750042  0.505639  1
  O  O237  1  0.499872  0.071078  0.377147  1
  O  O238  1  0.499872  0.571078  0.490926  1
  O  O239  1  0.171704  0.149987  0.376566  1
  O  O240  1  0.171704  0.649987  0.490345  1
  O  O241  1  0.171702  0.350094  0.422104  1
  O  O242  1  0.171702  0.850094  0.535883  1
  O  O243  1  0.132872  0.321238  0.388391  1
  O  O244  1  0.132872  0.821238  0.502171  1
  O  O245  1  0.134482  0.085535  0.383690  1
  O  O246  1  0.134482  0.585535  0.497469  1
  O  O247  1  0.365272  0.085539  0.399600  1
  O  O248  1  0.365272  0.585539  0.513379  1
  O  O249  1  0.365272  0.414548  0.474469  1
  O  O250  1  0.365272  0.914548  0.360690  1
  O  O251  1  0.134482  0.414547  0.458561  1
  O  O252  1  0.134482  0.914547  0.344782  1
  O  O253  1  0.306306  0.084848  0.373283  1
  O  O254  1  0.306306  0.584849  0.487063  1
  O  O255  1  0.193443  0.084855  0.409694  1
  O  O256  1  0.193443  0.584855  0.523473  1
  O  O257  1  0.193445  0.415235  0.484876  1
  O  O258  1  0.193445  0.915235  0.371097  1
  O  O259  1  0.306305  0.415233  0.448466  1
  O  O260  1  0.306305  0.915234  0.334687  1
  O  O261  1  0.499873  0.429006  0.458598  1
  O  O262  1  0.499873  0.929006  0.344819  1
  O  O263  1  0.127464  0.000000  0.378679  1
  O  O264  1  0.127464  0.500043  0.492458  1
  O  O265  1  0.372289  0.000000  0.365702  1
  O  O266  1  0.372289  0.500042  0.479482  1
  O  O267  1  0.132872  0.178849  0.355989  1
  O  O268  1  0.132872  0.678849  0.469768  1
  O  O269  1  0.839547  0.050557  0.350521  1
  O  O270  1  0.839547  0.550557  0.464300  1
  O  O271  1  0.839548  0.449524  0.441311  1
  O  O272  1  0.839548  0.949524  0.327532  1
  O  O273  1  0.000000  0.320860  0.407246  1
  O  O274  1  0.000000  0.820860  0.521025  1
  O  O275  1  0.000000  0.000000  0.335134  1
  O  O276  1  0.000000  0.500039  0.448913  1
  O  O277  1  0.868384  0.250042  0.391857  1
  O  O278  1  0.868384  0.750042  0.505636  1
  O  O279  1  0.828052  0.149987  0.376561  1
  O  O280  1  0.828052  0.649987  0.490340  1
  O  O281  1  0.828053  0.350095  0.422099  1
  O  O282  1  0.828053  0.850094  0.535878  1
  O  O283  1  0.866923  0.178849  0.355985  1
  O  O284  1  0.866923  0.678849  0.469765  1
  O  O285  1  0.634482  0.085538  0.399595  1
  O  O286  1  0.634482  0.585538  0.513374  1
  O  O287  1  0.865272  0.085537  0.383686  1
  O  O288  1  0.865272  0.585536  0.497465  1
  O  O289  1  0.865272  0.414545  0.458556  1
  O  O290  1  0.865272  0.914546  0.344777  1
  O  O291  1  0.634482  0.414550  0.474466  1
  O  O292  1  0.634482  0.914550  0.360687  1
  O  O293  1  0.806306  0.084853  0.409689  1
  O  O294  1  0.806306  0.584853  0.523468  1
  O  O295  1  0.693444  0.084851  0.373280  1
  O  O296  1  0.693444  0.584851  0.487059  1
  O  O297  1  0.693445  0.415231  0.448462  1
  O  O298  1  0.693445  0.915231  0.334683  1
  O  O299  1  0.806305  0.415238  0.484873  1
  O  O300  1  0.806305  0.915237  0.371094  1
  O  O301  1  0.000000  0.071079  0.399557  1
  O  O302  1  0.000000  0.571080  0.513337  1
  O  O303  1  0.000000  0.429008  0.481009  1
  O  O304  1  0.000000  0.929009  0.367230  1
  O  O305  1  0.627464  0.000000  0.365697  1
  O  O306  1  0.627464  0.500043  0.479477  1
  O  O307  1  0.872288  0.000000  0.378674  1
  O  O308  1  0.872288  0.500043  0.492454  1
  O  O309  1  0.000000  0.179223  0.375015  1
  O  O310  1  -0.000000  0.679223  0.488794  1
  O  O311  1  0.866922  0.321238  0.388388  1
  O  O312  1  0.866922  0.821237  0.502167  1
  O  O313  1  0.870958  0.000000  0.315295  1
  O  O314  1  0.870958  0.500035  0.429075  1
  O  O315  1  0.339590  0.050560  0.464307  1
  O  O316  1  0.339590  0.550561  0.350528  1
  O  O317  1  0.339544  0.050561  0.416845  1
  O  O318  1  0.339544  0.550561  0.530624  1
  O  O319  1  0.339552  0.449527  0.507634  1
  O  O320  1  0.339552  0.949527  0.393855  1
  O  O321  1  0.339594  0.449527  0.327535  1
  O  O322  1  0.339594  0.949527  0.441314  1
  O  O323  1  0.370958  0.000000  0.429081  1
  O  O324  1  0.370958  0.500049  0.315302  1
  O  O325  1  0.368413  0.250043  0.505640  1
  O  O326  1  0.368413  0.750042  0.391861  1
  O  O327  1  0.368384  0.250043  0.466299  1
  O  O328  1  0.368384  0.750043  0.352519  1
  O  O329  1  0.499912  0.179225  0.488794  1
  O  O330  1  0.499912  0.679224  0.375015  1
  O  O331  1  0.328091  0.149989  0.490346  1
  O  O332  1  0.328091  0.649989  0.376567  1
  O  O333  1  0.328053  0.149990  0.436057  1
  O  O334  1  0.328053  0.649990  0.322278  1
  O  O335  1  0.328052  0.350097  0.481594  1
  O  O336  1  0.328052  0.850098  0.367815  1
  O  O337  1  0.328091  0.350097  0.535882  1
  O  O338  1  0.328091  0.850097  0.422103  1
  O  O339  1  0.366923  0.178848  0.469768  1
  O  O340  1  0.366923  0.678848  0.355989  1
  O  O341  1  0.366922  0.321237  0.502170  1
  O  O342  1  0.366922  0.821236  0.388391  1
  O  O343  1  0.499915  -0.000000  0.448915  1
  O  O344  1  0.499915  0.500046  0.335135  1
  O  O345  1  0.499878  0.000000  0.409243  1
  O  O346  1  0.499878  0.500048  0.523022  1
  O  O347  1  0.499883  0.179225  0.450910  1
  O  O348  1  0.499883  0.679225  0.337131  1
  O  O349  1  0.499883  0.320861  0.483141  1
  O  O350  1  0.499883  0.820861  0.369361  1
  O  O351  1  0.499911  0.320861  0.521025  1
  O  O352  1  0.499911  0.820861  0.407246  1
  O  O353  1  0.660247  0.050561  0.464303  1
  O  O354  1  0.660247  0.550561  0.350524  1
  O  O355  1  0.660205  0.050561  0.416840  1
  O  O356  1  0.660205  0.550561  0.530620  1
  O  O357  1  0.660199  0.449527  0.507630  1
  O  O358  1  0.660199  0.949527  0.393851  1
  O  O359  1  0.660245  0.449527  0.327531  1
  O  O360  1  0.660245  0.949527  0.441310  1
  O  O361  1  0.628836  0.000000  0.429078  1
  O  O362  1  0.628836  0.500050  0.315299  1
  O  O363  1  0.631411  0.250043  0.505636  1
  O  O364  1  0.631411  0.750043  0.391857  1
  O  O365  1  0.631381  0.250043  0.466295  1
  O  O366  1  0.631381  0.750043  0.352516  1
  O  O367  1  0.671742  0.149990  0.490342  1
  O  O368  1  0.671742  0.649990  0.376563  1
  O  O369  1  0.671703  0.149990  0.436053  1
  O  O370  1  0.671703  0.649990  0.322273  1
  O  O371  1  0.671703  0.350098  0.481589  1
  O  O372  1  0.671703  0.850098  0.367810  1
  O  O373  1  0.671741  0.350098  0.535878  1
  O  O374  1  0.671741  0.850098  0.422099  1
  O  O375  1  0.632873  0.178848  0.469765  1
  O  O376  1  0.632873  0.678848  0.355986  1
  O  O377  1  0.632871  0.321237  0.502167  1
  O  O378  1  0.632871  0.821237  0.388387  1
  O  O379  1  0.160245  0.050560  0.530625  1
  O  O380  1  0.160245  0.550560  0.416846  1
  O  O381  1  0.160247  0.449527  0.393853  1
  O  O382  1  0.160247  0.949527  0.507632  1
  O  O383  1  0.131411  0.250045  0.352520  1
  O  O384  1  0.131411  0.750045  0.466299  1
  O  O385  1  0.171742  0.149990  0.322278  1
  O  O386  1  0.171742  0.649990  0.436057  1
  O  O387  1  0.171742  0.350098  0.367814  1
  O  O388  1  0.171742  0.850097  0.481594  1
  O  O389  1  0.134522  0.085537  0.513380  1
  O  O390  1  0.134522  0.585537  0.399600  1
  O  O391  1  0.365312  0.085539  0.497471  1
  O  O392  1  0.365312  0.585538  0.383692  1
  O  O393  1  0.365313  0.414550  0.344781  1
  O  O394  1  0.365313  0.914550  0.458560  1
  O  O395  1  0.134522  0.414546  0.360688  1
  O  O396  1  0.134522  0.914545  0.474468  1
  O  O397  1  0.306350  0.084852  0.523474  1
  O  O398  1  0.306350  0.584852  0.409695  1
  O  O399  1  0.193488  0.084852  0.487064  1
  O  O400  1  0.193488  0.584852  0.373285  1
  O  O401  1  0.193489  0.415237  0.334687  1
  O  O402  1  0.193489  0.915237  0.448466  1
  O  O403  1  0.306350  0.415232  0.371095  1
  O  O404  1  0.306350  0.915232  0.484874  1
  O  O405  1  0.499921  0.071078  0.513338  1
  O  O406  1  0.499921  0.571078  0.399559  1
  O  O407  1  0.499922  0.429007  0.367228  1
  O  O408  1  0.499922  0.929008  0.481007  1
  O  O409  1  0.127506  0.000000  0.479481  1
  O  O410  1  0.127506  0.500042  0.365702  1
  O  O411  1  0.372330  0.000000  0.492458  1
  O  O412  1  0.372330  0.500043  0.378679  1
  O  O413  1  0.839593  0.050560  0.530621  1
  O  O414  1  0.839593  0.550561  0.416842  1
  O  O415  1  0.839591  0.449526  0.393849  1
  O  O416  1  0.839591  0.949526  0.507628  1
  O  O417  1  0.868413  0.250045  0.352516  1
  O  O418  1  0.868413  0.750045  0.466296  1
  O  O419  1  0.000000  0.000000  0.523021  1
  O  O420  1  0.000000  0.500042  0.409242  1
  O  O421  1  0.000000  0.320863  0.369362  1
  O  O422  1  0.000000  0.820863  0.483141  1
  O  O423  1  0.828091  0.149990  0.322274  1
  O  O424  1  0.828091  0.649990  0.436053  1
  O  O425  1  0.828091  0.350097  0.367810  1
  O  O426  1  0.828091  0.850097  0.481589  1
  O  O427  1  0.634522  0.085541  0.497467  1
  O  O428  1  0.634522  0.585541  0.383688  1
  O  O429  1  0.865312  0.085535  0.513375  1
  O  O430  1  0.865312  0.585535  0.399596  1
  O  O431  1  0.865312  0.414547  0.360684  1
  O  O432  1  0.865312  0.914546  0.474464  1
  O  O433  1  0.634521  0.414549  0.344776  1
  O  O434  1  0.634521  0.914549  0.458556  1
  O  O435  1  0.806350  0.084854  0.487061  1
  O  O436  1  0.806350  0.584854  0.373282  1
  O  O437  1  0.693488  0.084850  0.523469  1
  O  O438  1  0.693488  0.584850  0.409690  1
  O  O439  1  0.693488  0.415234  0.371091  1
  O  O440  1  0.693488  0.915234  0.484871  1
  O  O441  1  0.806350  0.415235  0.334682  1
  O  O442  1  0.806350  0.915234  0.448461  1
  O  O443  1  0.000000  0.071078  0.490928  1
  O  O444  1  -0.000000  0.571079  0.377149  1
  O  O445  1  0.000000  0.429007  0.344818  1
  O  O446  1  0.000000  0.929007  0.458597  1
  O  O447  1  0.627506  0.000000  0.492454  1
  O  O448  1  0.627506  0.500043  0.378674  1
  O  O449  1  0.872330  0.000000  0.479477  1
  O  O450  1  0.872330  0.500042  0.365697  1
  O  O451  1  0.000000  0.179226  0.337131  1
  O  O452  1  0.000000  0.679226  0.450910  1
  O  O453  1  0.160202  0.050557  0.578084  1
  O  O454  1  0.160202  0.550557  0.691863  1
  O  O455  1  0.160201  0.449523  0.668873  1
  O  O456  1  0.160201  0.949524  0.555094  1
  O  O457  1  0.128836  0.000000  0.542857  1
  O  O458  1  0.128836  0.500036  0.656636  1
  O  O459  1  0.131381  0.250042  0.619419  1
  O  O460  1  0.131381  0.750042  0.733198  1
  O  O461  1  0.499872  0.071078  0.604706  1
  O  O462  1  0.499872  0.571078  0.718485  1
  O  O463  1  0.171704  0.149987  0.604124  1
  O  O464  1  0.171704  0.649987  0.717903  1
  O  O465  1  0.171702  0.350094  0.649662  1
  O  O466  1  0.171702  0.850094  0.763441  1
  O  O467  1  0.132872  0.321237  0.615950  1
  O  O468  1  0.132872  0.821238  0.729729  1
  O  O469  1  0.134482  0.085535  0.611248  1
  O  O470  1  0.134482  0.585535  0.725027  1
  O  O471  1  0.365272  0.085540  0.627158  1
  O  O472  1  0.365272  0.585539  0.740937  1
  O  O473  1  0.365272  0.414547  0.702028  1
  O  O474  1  0.365272  0.914548  0.588249  1
  O  O475  1  0.134482  0.414547  0.686119  1
  O  O476  1  0.134482  0.914547  0.572340  1
  O  O477  1  0.306306  0.084849  0.600842  1
  O  O478  1  0.306306  0.584848  0.714621  1
  O  O479  1  0.193443  0.084855  0.637252  1
  O  O480  1  0.193443  0.584855  0.751031  1
  O  O481  1  0.193445  0.415235  0.712435  1
  O  O482  1  0.193445  0.915235  0.598655  1
  O  O483  1  0.306305  0.415233  0.676025  1
  O  O484  1  0.306305  0.915233  0.562246  1
  O  O485  1  0.499873  0.429007  0.686157  1
  O  O486  1  0.499873  0.929006  0.572377  1
  O  O487  1  0.127464  0.000000  0.606238  1
  O  O488  1  0.127464  0.500043  0.720017  1
  O  O489  1  0.372289  0.000000  0.593261  1
  O  O490  1  0.372289  0.500042  0.707040  1
  O  O491  1  0.132872  0.178849  0.583547  1
  O  O492  1  0.132872  0.678849  0.697327  1
  O  O493  1  0.839547  0.050557  0.578080  1
  O  O494  1  0.839547  0.550557  0.691859  1
  O  O495  1  0.839548  0.449523  0.668869  1
  O  O496  1  0.839548  0.949524  0.555090  1
  O  O497  1  0.000000  0.320860  0.634804  1
  O  O498  1  0.000000  0.820860  0.748584  1
  O  O499  1  0.000000  0.000000  0.562692  1
  O  O500  1  0.000000  0.500039  0.676471  1
  O  O501  1  0.868384  0.250042  0.619415  1
  O  O502  1  0.868384  0.750042  0.733194  1
  O  O503  1  0.828052  0.149987  0.604120  1
  O  O504  1  0.828052  0.649987  0.717899  1
  O  O505  1  0.828053  0.350095  0.649657  1
  O  O506  1  0.828053  0.850094  0.763436  1
  O  O507  1  0.866923  0.178849  0.583544  1
  O  O508  1  0.866923  0.678849  0.697323  1
  O  O509  1  0.634482  0.085538  0.627154  1
  O  O510  1  0.634482  0.585538  0.740933  1
  O  O511  1  0.865272  0.085537  0.611244  1
  O  O512  1  0.865272  0.585536  0.725023  1
  O  O513  1  0.865272  0.414545  0.686115  1
  O  O514  1  0.865272  0.914546  0.572335  1
  O  O515  1  0.634482  0.414550  0.702024  1
  O  O516  1  0.634482  0.914550  0.588245  1
  O  O517  1  0.806306  0.084853  0.637248  1
  O  O518  1  0.806306  0.584853  0.751027  1
  O  O519  1  0.693444  0.084851  0.600838  1
  O  O520  1  0.693444  0.584851  0.714617  1
  O  O521  1  0.693445  0.415231  0.676020  1
  O  O522  1  0.693445  0.915231  0.562241  1
  O  O523  1  0.806305  0.415237  0.712431  1
  O  O524  1  0.806305  0.915238  0.598652  1
  O  O525  1  0.000000  0.071080  0.627116  1
  O  O526  1  0.000000  0.571079  0.740895  1
  O  O527  1  0.000000  0.429008  0.708567  1
  O  O528  1  0.000000  0.929008  0.594788  1
  O  O529  1  0.627464  0.000000  0.593256  1
  O  O530  1  0.627464  0.500042  0.707035  1
  O  O531  1  0.872288  0.000000  0.606233  1
  O  O532  1  0.872288  0.500043  0.720012  1
  O  O533  1  0.000000  0.179223  0.602573  1
  O  O534  1  0.000000  0.679223  0.716352  1
  O  O535  1  0.866922  0.321238  0.615946  1
  O  O536  1  0.866922  0.821237  0.729725  1
  O  O537  1  0.870958  0.000000  0.542854  1
  O  O538  1  0.870958  0.500035  0.656633  1
  O  O539  1  0.339590  0.050561  0.691865  1
  O  O540  1  0.339590  0.550561  0.578086  1
  O  O541  1  0.339544  0.050560  0.644403  1
  O  O542  1  0.339544  0.550561  0.758182  1
  O  O543  1  0.339552  0.449527  0.735192  1
  O  O544  1  0.339552  0.949527  0.621413  1
  O  O545  1  0.339594  0.449526  0.555093  1
  O  O546  1  0.339594  0.949526  0.668873  1
  O  O547  1  0.370958  -0.000000  0.656639  1
  O  O548  1  0.370958  0.500048  0.542860  1
  O  O549  1  0.368413  0.250042  0.733198  1
  O  O550  1  0.368413  0.750043  0.619419  1
  O  O551  1  0.368384  0.250043  0.693857  1
  O  O552  1  0.368384  0.750043  0.580078  1
  O  O553  1  0.499912  0.179225  0.716353  1
  O  O554  1  0.499912  0.679225  0.602574  1
  O  O555  1  0.328091  0.149989  0.717905  1
  O  O556  1  0.328091  0.649990  0.604126  1
  O  O557  1  0.328053  0.149990  0.663615  1
  O  O558  1  0.328053  0.649990  0.549836  1
  O  O559  1  0.328052  0.350098  0.709152  1
  O  O560  1  0.328052  0.850098  0.595373  1
  O  O561  1  0.328091  0.350097  0.763441  1
  O  O562  1  0.328091  0.850097  0.649661  1
  O  O563  1  0.366923  0.178848  0.697327  1
  O  O564  1  0.366923  0.678848  0.583547  1
  O  O565  1  0.366922  0.321237  0.729728  1
  O  O566  1  0.366922  0.821236  0.615949  1
  O  O567  1  0.499915  0.000000  0.676473  1
  O  O568  1  0.499915  0.500046  0.562694  1
  O  O569  1  0.499878  0.000000  0.636801  1
  O  O570  1  0.499878  0.500048  0.750581  1
  O  O571  1  0.499883  0.179224  0.678468  1
  O  O572  1  0.499883  0.679224  0.564689  1
  O  O573  1  0.499883  0.320862  0.710699  1
  O  O574  1  0.499883  0.820861  0.596920  1
  O  O575  1  0.499911  0.320861  0.748584  1
  O  O576  1  0.499911  0.820861  0.634804  1
  O  O577  1  0.660247  0.050560  0.691861  1
  O  O578  1  0.660247  0.550560  0.578082  1
  O  O579  1  0.660205  0.050561  0.644399  1
  O  O580  1  0.660205  0.550561  0.758178  1
  O  O581  1  0.660199  0.449527  0.735188  1
  O  O582  1  0.660199  0.949527  0.621409  1
  O  O583  1  0.660245  0.449527  0.555089  1
  O  O584  1  0.660245  0.949527  0.668869  1
  O  O585  1  0.628836  0.000000  0.656636  1
  O  O586  1  0.628836  0.500049  0.542857  1
  O  O587  1  0.631411  0.250043  0.733195  1
  O  O588  1  0.631411  0.750043  0.619416  1
  O  O589  1  0.631381  0.250043  0.693854  1
  O  O590  1  0.631381  0.750043  0.580074  1
  O  O591  1  0.671742  0.149990  0.717900  1
  O  O592  1  0.671742  0.649990  0.604121  1
  O  O593  1  0.671703  0.149991  0.663611  1
  O  O594  1  0.671703  0.649990  0.549832  1
  O  O595  1  0.671703  0.350097  0.709148  1
  O  O596  1  0.671703  0.850098  0.595368  1
  O  O597  1  0.671741  0.350098  0.763436  1
  O  O598  1  0.671741  0.850098  0.649657  1
  O  O599  1  0.632873  0.178848  0.697323  1
  O  O600  1  0.632873  0.678849  0.583544  1
  O  O601  1  0.632871  0.321237  0.729725  1
  O  O602  1  0.632871  0.821237  0.615946  1
  O  O603  1  0.160245  0.050560  0.758184  1
  O  O604  1  0.160245  0.550560  0.644405  1
  O  O605  1  0.160247  0.449527  0.621411  1
  O  O606  1  0.160247  0.949527  0.735191  1
  O  O607  1  0.131411  0.250045  0.580078  1
  O  O608  1  0.131411  0.750044  0.693857  1
  O  O609  1  0.171742  0.149990  0.549836  1
  O  O610  1  0.171742  0.649990  0.663616  1
  O  O611  1  0.171742  0.350098  0.595373  1
  O  O612  1  0.171742  0.850097  0.709152  1
  O  O613  1  0.134522  0.085537  0.740938  1
  O  O614  1  0.134522  0.585537  0.627159  1
  O  O615  1  0.365312  0.085539  0.725029  1
  O  O616  1  0.365312  0.585538  0.611250  1
  O  O617  1  0.365313  0.414550  0.572339  1
  O  O618  1  0.365313  0.914550  0.686118  1
  O  O619  1  0.134522  0.414545  0.588247  1
  O  O620  1  0.134522  0.914546  0.702026  1
  O  O621  1  0.306350  0.084852  0.751032  1
  O  O622  1  0.306350  0.584852  0.637253  1
  O  O623  1  0.193488  0.084852  0.714623  1
  O  O624  1  0.193488  0.584852  0.600844  1
  O  O625  1  0.193489  0.415236  0.562245  1
  O  O626  1  0.193489  0.915237  0.676024  1
  O  O627  1  0.306350  0.415232  0.598653  1
  O  O628  1  0.306350  0.915232  0.712433  1
  O  O629  1  0.499921  0.071079  0.740896  1
  O  O630  1  0.499921  0.571078  0.627117  1
  O  O631  1  0.499922  0.429007  0.594786  1
  O  O632  1  0.499922  0.929007  0.708566  1
  O  O633  1  0.127506  0.000000  0.707040  1
  O  O634  1  0.127506  0.500042  0.593261  1
  O  O635  1  0.372330  0.000000  0.720017  1
  O  O636  1  0.372330  0.500043  0.606237  1
  O  O637  1  0.839593  0.050561  0.758180  1
  O  O638  1  0.839593  0.550561  0.644400  1
  O  O639  1  0.839591  0.449526  0.621407  1
  O  O640  1  0.839591  0.949527  0.735186  1
  O  O641  1  0.868413  0.250045  0.580075  1
  O  O642  1  0.868413  0.750045  0.693854  1
  O  O643  1  0.000000  0.000000  0.750579  1
  O  O644  1  0.000000  0.500042  0.636800  1
  O  O645  1  0.000000  0.320863  0.596921  1
  O  O646  1  0.000000  0.820863  0.710700  1
  O  O647  1  0.828091  0.149990  0.549832  1
  O  O648  1  0.828091  0.649990  0.663611  1
  O  O649  1  0.828091  0.350097  0.595368  1
  O  O650  1  0.828091  0.850097  0.709147  1
  O  O651  1  0.634522  0.085540  0.725026  1
  O  O652  1  0.634522  0.585540  0.611247  1
  O  O653  1  0.865312  0.085535  0.740933  1
  O  O654  1  0.865312  0.585535  0.627154  1
  O  O655  1  0.865312  0.414547  0.588243  1
  O  O656  1  0.865312  0.914547  0.702022  1
  O  O657  1  0.634521  0.414549  0.572335  1
  O  O658  1  0.634521  0.914549  0.686114  1
  O  O659  1  0.806350  0.084854  0.714619  1
  O  O660  1  0.806350  0.584854  0.600840  1
  O  O661  1  0.693488  0.084850  0.751028  1
  O  O662  1  0.693488  0.584850  0.637248  1
  O  O663  1  0.693488  0.415234  0.598650  1
  O  O664  1  0.693488  0.915234  0.712429  1
  O  O665  1  0.806350  0.415234  0.562240  1
  O  O666  1  0.806350  0.915234  0.676019  1
  O  O667  1  0.000000  0.071079  0.718486  1
  O  O668  1  0.000000  0.571078  0.604707  1
  O  O669  1  0.000000  0.429007  0.572376  1
  O  O670  1  0.000000  0.929007  0.686156  1
  O  O671  1  0.627506  0.000000  0.720012  1
  O  O672  1  0.627506  0.500043  0.606233  1
  O  O673  1  0.872330  0.000000  0.707035  1
  O  O674  1  0.872330  0.500043  0.593256  1
  O  O675  1  0.000000  0.179226  0.564689  1
  O  O676  1  0.000000  0.679226  0.678468  1
  O  O677  1  0.128836  0.000000  0.770416  1
  O  O678  1  0.870958  0.000000  0.770412  1
  O  O679  1  0.370958  0.500048  0.770418  1
  O  O680  1  0.328053  0.649990  0.777395  1
  O  O681  1  0.628836  0.500050  0.770415  1
  O  O682  1  0.671703  0.649991  0.777390  1
  O  O683  1  0.171742  0.149990  0.777395  1
  O  O684  1  0.828091  0.149990  0.777390  1
  Si  Si685  1  0.113094  -0.000000  0.104611  1
  Si  Si686  1  0.113094  0.500039  0.218390  1
  Si  Si687  1  0.113025  0.188943  0.147553  1
  Si  Si688  1  0.113025  0.688943  0.261333  1
  Si  Si689  1  0.113025  0.311140  0.175361  1
  Si  Si690  1  0.113025  0.811141  0.289140  1
  Si  Si691  1  0.195111  0.094792  0.143832  1
  Si  Si692  1  0.195111  0.594792  0.257611  1
  Si  Si693  1  0.195110  0.405288  0.214490  1
  Si  Si694  1  0.195110  0.905288  0.100710  1
  Si  Si695  1  0.112151  0.061826  0.166314  1
  Si  Si696  1  0.112151  0.561825  0.280093  1
  Si  Si697  1  0.387599  0.061824  0.151067  1
  Si  Si698  1  0.387599  0.561824  0.264846  1
  Si  Si699  1  0.387599  0.438260  0.236729  1
  Si  Si700  1  0.387599  0.938260  0.122950  1
  Si  Si701  1  0.112152  0.438262  0.251977  1
  Si  Si702  1  0.112152  0.938262  0.138198  1
  Si  Si703  1  0.886665  0.000000  0.104608  1
  Si  Si704  1  0.886665  0.500039  0.218387  1
  Si  Si705  1  0.612151  0.438260  0.236725  1
  Si  Si706  1  0.612151  0.938260  0.122946  1
  Si  Si707  1  0.886744  0.188943  0.147550  1
  Si  Si708  1  0.886744  0.688943  0.261330  1
  Si  Si709  1  0.886743  0.311140  0.175358  1
  Si  Si710  1  0.886743  0.811141  0.289137  1
  Si  Si711  1  0.804640  0.094794  0.143828  1
  Si  Si712  1  0.804640  0.594793  0.257607  1
  Si  Si713  1  0.804641  0.405287  0.214485  1
  Si  Si714  1  0.804641  0.905288  0.100706  1
  Si  Si715  1  0.612151  0.061824  0.151063  1
  Si  Si716  1  0.612151  0.561824  0.264842  1
  Si  Si717  1  0.887599  0.061825  0.166310  1
  Si  Si718  1  0.887599  0.561825  0.280089  1
  Si  Si719  1  0.887599  0.438262  0.251973  1
  Si  Si720  1  0.887599  0.938262  0.138194  1
  Si  Si721  1  0.386770  0.188944  0.261333  1
  Si  Si722  1  0.386770  0.688944  0.147554  1
  Si  Si723  1  0.386744  0.188944  0.227681  1
  Si  Si724  1  0.386744  0.688944  0.113902  1
  Si  Si725  1  0.386743  0.311142  0.255488  1
  Si  Si726  1  0.386743  0.811142  0.141709  1
  Si  Si727  1  0.386769  0.311141  0.289140  1
  Si  Si728  1  0.386769  0.811141  0.175361  1
  Si  Si729  1  0.304683  0.094796  0.257613  1
  Si  Si730  1  0.304683  0.594796  0.143834  1
  Si  Si731  1  0.304640  0.094798  0.188554  1
  Si  Si732  1  0.304640  0.594797  0.302333  1
  Si  Si733  1  0.304641  0.405292  0.259211  1
  Si  Si734  1  0.304641  0.905292  0.145432  1
  Si  Si735  1  0.304684  0.405292  0.100710  1
  Si  Si736  1  0.304684  0.905292  0.214489  1
  Si  Si737  1  0.386699  0.000000  0.218391  1
  Si  Si738  1  0.386699  0.500045  0.104612  1
  Si  Si739  1  0.386666  -0.000000  0.184652  1
  Si  Si740  1  0.386666  0.500046  0.298431  1
  Si  Si741  1  0.613095  -0.000000  0.184649  1
  Si  Si742  1  0.613095  0.500046  0.298428  1
  Si  Si743  1  0.613128  -0.000000  0.218389  1
  Si  Si744  1  0.613128  0.500046  0.104610  1
  Si  Si745  1  0.695153  0.405291  0.100705  1
  Si  Si746  1  0.695153  0.905292  0.214485  1
  Si  Si747  1  0.695110  0.405292  0.259207  1
  Si  Si748  1  0.695110  0.905292  0.145428  1
  Si  Si749  1  0.695111  0.094797  0.188550  1
  Si  Si750  1  0.695111  0.594797  0.302329  1
  Si  Si751  1  0.613051  0.188944  0.261330  1
  Si  Si752  1  0.613051  0.688944  0.147551  1
  Si  Si753  1  0.613025  0.188944  0.227678  1
  Si  Si754  1  0.613025  0.688945  0.113899  1
  Si  Si755  1  0.613025  0.311142  0.255485  1
  Si  Si756  1  0.613025  0.811142  0.141706  1
  Si  Si757  1  0.613051  0.311141  0.289137  1
  Si  Si758  1  0.613051  0.811141  0.175358  1
  Si  Si759  1  0.695154  0.094798  0.257609  1
  Si  Si760  1  0.695154  0.594797  0.143830  1
  Si  Si761  1  0.112195  0.438261  0.122949  1
  Si  Si762  1  0.112195  0.938261  0.236728  1
  Si  Si763  1  0.113128  0.000000  0.298430  1
  Si  Si764  1  0.113128  0.500042  0.184651  1
  Si  Si765  1  0.113051  0.188946  0.113902  1
  Si  Si766  1  0.113051  0.688945  0.227681  1
  Si  Si767  1  0.113051  0.311143  0.141710  1
  Si  Si768  1  0.113051  0.811143  0.255489  1
  Si  Si769  1  0.195154  0.094796  0.302334  1
  Si  Si770  1  0.195154  0.594796  0.188555  1
  Si  Si771  1  0.195154  0.405290  0.145430  1
  Si  Si772  1  0.195154  0.905289  0.259209  1
  Si  Si773  1  0.112195  0.061825  0.264847  1
  Si  Si774  1  0.112195  0.561824  0.151068  1
  Si  Si775  1  0.387642  0.061825  0.280094  1
  Si  Si776  1  0.387642  0.561825  0.166315  1
  Si  Si777  1  0.387643  0.438261  0.138196  1
  Si  Si778  1  0.387643  0.938261  0.251976  1
  Si  Si779  1  0.886769  0.188945  0.113899  1
  Si  Si780  1  0.886769  0.688945  0.227678  1
  Si  Si781  1  0.886769  0.311143  0.141707  1
  Si  Si782  1  0.886769  0.811143  0.255486  1
  Si  Si783  1  0.804683  0.094795  0.302330  1
  Si  Si784  1  0.804683  0.594795  0.188550  1
  Si  Si785  1  0.804683  0.405290  0.145426  1
  Si  Si786  1  0.804683  0.905290  0.259205  1
  Si  Si787  1  0.612195  0.061825  0.280090  1
  Si  Si788  1  0.612195  0.561825  0.166311  1
  Si  Si789  1  0.887643  0.061824  0.264843  1
  Si  Si790  1  0.887643  0.561824  0.151064  1
  Si  Si791  1  0.887643  0.438261  0.122945  1
  Si  Si792  1  0.887643  0.938261  0.236724  1
  Si  Si793  1  0.612195  0.438261  0.138192  1
  Si  Si794  1  0.612195  0.938261  0.251972  1
  Si  Si795  1  0.886699  0.000000  0.298427  1
  Si  Si796  1  0.886699  0.500041  0.184648  1
  Si  Si797  1  0.113094  0.000000  0.332169  1
  Si  Si798  1  0.113094  0.500039  0.445949  1
  Si  Si799  1  0.113025  0.188943  0.375112  1
  Si  Si800  1  0.113025  0.688943  0.488891  1
  Si  Si801  1  0.113025  0.311140  0.402919  1
  Si  Si802  1  0.113025  0.811141  0.516699  1
  Si  Si803  1  0.195111  0.094793  0.371390  1
  Si  Si804  1  0.195111  0.594793  0.485169  1
  Si  Si805  1  0.195110  0.405289  0.442048  1
  Si  Si806  1  0.195110  0.905288  0.328269  1
  Si  Si807  1  0.112151  0.061825  0.393873  1
  Si  Si808  1  0.112151  0.561825  0.507652  1
  Si  Si809  1  0.387599  0.061824  0.378625  1
  Si  Si810  1  0.387599  0.561824  0.492404  1
  Si  Si811  1  0.387599  0.438260  0.464287  1
  Si  Si812  1  0.387599  0.938260  0.350508  1
  Si  Si813  1  0.112152  0.438261  0.479535  1
  Si  Si814  1  0.112152  0.938261  0.365756  1
  Si  Si815  1  0.886665  -0.000000  0.332166  1
  Si  Si816  1  0.886665  0.500039  0.445945  1
  Si  Si817  1  0.612151  0.438260  0.464283  1
  Si  Si818  1  0.612151  0.938260  0.350504  1
  Si  Si819  1  0.886744  0.188943  0.375109  1
  Si  Si820  1  0.886744  0.688943  0.488888  1
  Si  Si821  1  0.886743  0.311140  0.402916  1
  Si  Si822  1  0.886743  0.811141  0.516695  1
  Si  Si823  1  0.804640  0.094793  0.371386  1
  Si  Si824  1  0.804640  0.594793  0.485165  1
  Si  Si825  1  0.804641  0.405288  0.442044  1
  Si  Si826  1  0.804641  0.905288  0.328264  1
  Si  Si827  1  0.612151  0.061825  0.378621  1
  Si  Si828  1  0.612151  0.561824  0.492400  1
  Si  Si829  1  0.887599  0.061825  0.393868  1
  Si  Si830  1  0.887599  0.561825  0.507648  1
  Si  Si831  1  0.887599  0.438261  0.479531  1
  Si  Si832  1  0.887599  0.938262  0.365752  1
  Si  Si833  1  0.386770  0.188944  0.488891  1
  Si  Si834  1  0.386770  0.688944  0.375112  1
  Si  Si835  1  0.386744  0.188944  0.455240  1
  Si  Si836  1  0.386744  0.688944  0.341460  1
  Si  Si837  1  0.386743  0.311141  0.483047  1
  Si  Si838  1  0.386743  0.811141  0.369267  1
  Si  Si839  1  0.386769  0.311141  0.516698  1
  Si  Si840  1  0.386769  0.811141  0.402919  1
  Si  Si841  1  0.304683  0.094796  0.485171  1
  Si  Si842  1  0.304683  0.594796  0.371392  1
  Si  Si843  1  0.304640  0.094797  0.416112  1
  Si  Si844  1  0.304640  0.594797  0.529892  1
  Si  Si845  1  0.304641  0.405292  0.486769  1
  Si  Si846  1  0.304641  0.905292  0.372990  1
  Si  Si847  1  0.304684  0.405292  0.328268  1
  Si  Si848  1  0.304684  0.905292  0.442047  1
  Si  Si849  1  0.386699  0.000000  0.445950  1
  Si  Si850  1  0.386699  0.500045  0.332171  1
  Si  Si851  1  0.386666  0.000000  0.412210  1
  Si  Si852  1  0.386666  0.500046  0.525989  1
  Si  Si853  1  0.613095  0.000000  0.412207  1
  Si  Si854  1  0.613095  0.500046  0.525986  1
  Si  Si855  1  0.613128  0.000000  0.445947  1
  Si  Si856  1  0.613128  0.500046  0.332168  1
  Si  Si857  1  0.695153  0.405292  0.328264  1
  Si  Si858  1  0.695153  0.905291  0.442043  1
  Si  Si859  1  0.695110  0.405292  0.486765  1
  Si  Si860  1  0.695110  0.905292  0.372986  1
  Si  Si861  1  0.695111  0.094797  0.416108  1
  Si  Si862  1  0.695111  0.594797  0.529887  1
  Si  Si863  1  0.613051  0.188944  0.488888  1
  Si  Si864  1  0.613051  0.688944  0.375109  1
  Si  Si865  1  0.613025  0.188945  0.455237  1
  Si  Si866  1  0.613025  0.688945  0.341458  1
  Si  Si867  1  0.613025  0.311142  0.483044  1
  Si  Si868  1  0.613025  0.811142  0.369265  1
  Si  Si869  1  0.613051  0.311142  0.516695  1
  Si  Si870  1  0.613051  0.811142  0.402916  1
  Si  Si871  1  0.695154  0.094797  0.485168  1
  Si  Si872  1  0.695154  0.594798  0.371388  1
  Si  Si873  1  0.112195  0.438261  0.350507  1
  Si  Si874  1  0.112195  0.938261  0.464286  1
  Si  Si875  1  0.113128  0.000000  0.525988  1
  Si  Si876  1  0.113128  0.500042  0.412209  1
  Si  Si877  1  0.113051  0.188946  0.341460  1
  Si  Si878  1  0.113051  0.688945  0.455240  1
  Si  Si879  1  0.113051  0.311143  0.369268  1
  Si  Si880  1  0.113051  0.811143  0.483047  1
  Si  Si881  1  0.195154  0.094796  0.529892  1
  Si  Si882  1  0.195154  0.594795  0.416113  1
  Si  Si883  1  0.195154  0.405290  0.372988  1
  Si  Si884  1  0.195154  0.905289  0.486768  1
  Si  Si885  1  0.112195  0.061825  0.492405  1
  Si  Si886  1  0.112195  0.561824  0.378626  1
  Si  Si887  1  0.387642  0.061825  0.507653  1
  Si  Si888  1  0.387642  0.561825  0.393874  1
  Si  Si889  1  0.387643  0.438261  0.365755  1
  Si  Si890  1  0.387643  0.938261  0.479534  1
  Si  Si891  1  0.886769  0.188945  0.341458  1
  Si  Si892  1  0.886769  0.688945  0.455237  1
  Si  Si893  1  0.886769  0.311143  0.369265  1
  Si  Si894  1  0.886769  0.811143  0.483044  1
  Si  Si895  1  0.804683  0.094795  0.529888  1
  Si  Si896  1  0.804683  0.594795  0.416109  1
  Si  Si897  1  0.804683  0.405290  0.372984  1
  Si  Si898  1  0.804683  0.905290  0.486763  1
  Si  Si899  1  0.612195  0.061825  0.507649  1
  Si  Si900  1  0.612195  0.561825  0.393870  1
  Si  Si901  1  0.887643  0.061825  0.492401  1
  Si  Si902  1  0.887643  0.561824  0.378622  1
  Si  Si903  1  0.887643  0.438261  0.350503  1
  Si  Si904  1  0.887643  0.938261  0.464282  1
  Si  Si905  1  0.612195  0.438261  0.365751  1
  Si  Si906  1  0.612195  0.938261  0.479530  1
  Si  Si907  1  0.886699  0.000000  0.525985  1
  Si  Si908  1  0.886699  0.500041  0.412206  1
  Si  Si909  1  0.113094  -0.000000  0.559728  1
  Si  Si910  1  0.113094  0.500039  0.673507  1
  Si  Si911  1  0.113025  0.188943  0.602670  1
  Si  Si912  1  0.113025  0.688943  0.716449  1
  Si  Si913  1  0.113025  0.311141  0.630478  1
  Si  Si914  1  0.113025  0.811141  0.744257  1
  Si  Si915  1  0.195111  0.094793  0.598948  1
  Si  Si916  1  0.195111  0.594792  0.712728  1
  Si  Si917  1  0.195110  0.405289  0.669606  1
  Si  Si918  1  0.195110  0.905288  0.555827  1
  Si  Si919  1  0.112151  0.061825  0.621431  1
  Si  Si920  1  0.112151  0.561825  0.735210  1
  Si  Si921  1  0.387599  0.061824  0.606184  1
  Si  Si922  1  0.387599  0.561824  0.719963  1
  Si  Si923  1  0.387599  0.438260  0.691845  1
  Si  Si924  1  0.387599  0.938260  0.578066  1
  Si  Si925  1  0.112152  0.438261  0.707093  1
  Si  Si926  1  0.112152  0.938262  0.593314  1
  Si  Si927  1  0.886665  -0.000000  0.559725  1
  Si  Si928  1  0.886665  0.500039  0.673504  1
  Si  Si929  1  0.612151  0.438260  0.691841  1
  Si  Si930  1  0.612151  0.938260  0.578062  1
  Si  Si931  1  0.886744  0.188943  0.602667  1
  Si  Si932  1  0.886744  0.688943  0.716446  1
  Si  Si933  1  0.886743  0.311140  0.630475  1
  Si  Si934  1  0.886743  0.811141  0.744254  1
  Si  Si935  1  0.804640  0.094793  0.598945  1
  Si  Si936  1  0.804640  0.594793  0.712724  1
  Si  Si937  1  0.804641  0.405288  0.669602  1
  Si  Si938  1  0.804641  0.905288  0.555823  1
  Si  Si939  1  0.612151  0.061824  0.606179  1
  Si  Si940  1  0.612151  0.561825  0.719958  1
  Si  Si941  1  0.887599  0.061825  0.621427  1
  Si  Si942  1  0.887599  0.561825  0.735206  1
  Si  Si943  1  0.887599  0.438261  0.707089  1
  Si  Si944  1  0.887599  0.938261  0.593310  1
  Si  Si945  1  0.386770  0.188944  0.716450  1
  Si  Si946  1  0.386770  0.688944  0.602670  1
  Si  Si947  1  0.386744  0.188944  0.682798  1
  Si  Si948  1  0.386744  0.688944  0.569019  1
  Si  Si949  1  0.386743  0.311141  0.710605  1
  Si  Si950  1  0.386743  0.811142  0.596826  1
  Si  Si951  1  0.386769  0.311141  0.744257  1
  Si  Si952  1  0.386769  0.811141  0.630477  1
  Si  Si953  1  0.304683  0.094796  0.712730  1
  Si  Si954  1  0.304683  0.594796  0.598951  1
  Si  Si955  1  0.304640  0.094798  0.643671  1
  Si  Si956  1  0.304640  0.594798  0.757450  1
  Si  Si957  1  0.304641  0.405292  0.714328  1
  Si  Si958  1  0.304641  0.905292  0.600548  1
  Si  Si959  1  0.304684  0.405292  0.555826  1
  Si  Si960  1  0.304684  0.905292  0.669606  1
  Si  Si961  1  0.386699  0.000000  0.673508  1
  Si  Si962  1  0.386699  0.500045  0.559729  1
  Si  Si963  1  0.386666  0.000000  0.639768  1
  Si  Si964  1  0.386666  0.500046  0.753548  1
  Si  Si965  1  0.613095  0.000000  0.639766  1
  Si  Si966  1  0.613095  0.500047  0.753545  1
  Si  Si967  1  0.613128  0.000000  0.673506  1
  Si  Si968  1  0.613128  0.500046  0.559726  1
  Si  Si969  1  0.695153  0.405292  0.555822  1
  Si  Si970  1  0.695153  0.905292  0.669601  1
  Si  Si971  1  0.695110  0.405293  0.714324  1
  Si  Si972  1  0.695110  0.905292  0.600545  1
  Si  Si973  1  0.695111  0.094797  0.643666  1
  Si  Si974  1  0.695111  0.594797  0.757446  1
  Si  Si975  1  0.613051  0.188944  0.716447  1
  Si  Si976  1  0.613051  0.688944  0.602668  1
  Si  Si977  1  0.613025  0.188945  0.682795  1
  Si  Si978  1  0.613025  0.688945  0.569016  1
  Si  Si979  1  0.613025  0.311142  0.710602  1
  Si  Si980  1  0.613025  0.811142  0.596823  1
  Si  Si981  1  0.613051  0.311142  0.744254  1
  Si  Si982  1  0.613051  0.811142  0.630475  1
  Si  Si983  1  0.695154  0.094797  0.712726  1
  Si  Si984  1  0.695154  0.594797  0.598947  1
  Si  Si985  1  0.112195  0.438261  0.578065  1
  Si  Si986  1  0.112195  0.938261  0.691845  1
  Si  Si987  1  0.113128  0.000000  0.753547  1
  Si  Si988  1  0.113128  0.500041  0.639767  1
  Si  Si989  1  0.113051  0.188946  0.569019  1
  Si  Si990  1  0.113051  0.688945  0.682798  1
  Si  Si991  1  0.113051  0.311143  0.596826  1
  Si  Si992  1  0.113051  0.811143  0.710605  1
  Si  Si993  1  0.195154  0.094796  0.757451  1
  Si  Si994  1  0.195154  0.594796  0.643671  1
  Si  Si995  1  0.195154  0.405290  0.600547  1
  Si  Si996  1  0.195154  0.905290  0.714326  1
  Si  Si997  1  0.112195  0.061825  0.719963  1
  Si  Si998  1  0.112195  0.561825  0.606184  1
  Si  Si999  1  0.387642  0.061825  0.735211  1
  Si  Si1000  1  0.387642  0.561825  0.621432  1
  Si  Si1001  1  0.387643  0.438261  0.593313  1
  Si  Si1002  1  0.387643  0.938261  0.707092  1
  Si  Si1003  1  0.886769  0.188946  0.569016  1
  Si  Si1004  1  0.886769  0.688945  0.682795  1
  Si  Si1005  1  0.886769  0.311143  0.596823  1
  Si  Si1006  1  0.886769  0.811143  0.710603  1
  Si  Si1007  1  0.804683  0.094794  0.757446  1
  Si  Si1008  1  0.804683  0.594795  0.643667  1
  Si  Si1009  1  0.804683  0.405290  0.600543  1
  Si  Si1010  1  0.804683  0.905290  0.714322  1
  Si  Si1011  1  0.612195  0.061825  0.735207  1
  Si  Si1012  1  0.612195  0.561825  0.621428  1
  Si  Si1013  1  0.887643  0.061824  0.719959  1
  Si  Si1014  1  0.887643  0.561825  0.606180  1
  Si  Si1015  1  0.887643  0.438261  0.578061  1
  Si  Si1016  1  0.887643  0.938261  0.691841  1
  Si  Si1017  1  0.612195  0.438262  0.593309  1
  Si  Si1018  1  0.612195  0.938261  0.707088  1
  Si  Si1019  1  0.886699  0.000000  0.753543  1
  Si  Si1020  1  0.886699  0.500041  0.639764  1
  H  H1021  1  0.171702  0.850094  0.070927  1
  H  H1022  1  0.828053  0.850094  0.070922  1
  H  H1023  1  0.328091  0.350097  0.070926  1
  H  H1024  1  0.671741  0.350098  0.070922  1
  H  H1025  1  0.128836  -0.000000  0.077901  1
  H  H1026  1  0.870958  0.000000  0.077898  1
  H  H1027  1  0.370958  0.500048  0.077904  1
  H  H1028  1  0.328053  0.649990  0.084880  1
  H  H1029  1  0.628836  0.500049  0.077901  1
  H  H1030  1  0.671703  0.649990  0.084876  1
  H  H1031  1  0.171742  0.149990  0.084881  1
  H  H1032  1  0.828091  0.149990  0.084876  1
  H  H1033  1  0.171702  0.850094  0.773280  1
  H  H1034  1  0.828053  0.850094  0.773276  1
  H  H1035  1  0.328091  0.350097  0.773280  1
  H  H1036  1  0.671741  0.350098  0.773275  1
  H  H1037  1  0.128836  0.000000  0.780255  1
  H  H1038  1  0.870958  0.000000  0.780251  1
  H  H1039  1  0.370958  0.500049  0.780258  1
  H  H1040  1  0.328053  0.649990  0.787234  1
  H  H1041  1  0.628836  0.500050  0.780254  1
  H  H1042  1  0.671703  0.649991  0.787229  1
  H  H1043  1  0.171742  0.149990  0.787234  1
  H  H1044  1  0.828091  0.149990  0.787229  1
