# generated using pymatgen
data_Si84H2O169
_symmetry_space_group_name_H-M   'P 1'
_cell_length_a   14.22215015
_cell_length_b   20.03147368
_cell_length_c   153.43415365
_cell_angle_alpha   90.00000000
_cell_angle_beta   90.00000000
_cell_angle_gamma   90.00000000
_symmetry_Int_Tables_number   1
_chemical_formula_structural   Si84H2O169
_chemical_formula_sum   'Si672 H16 O1352'
_cell_volume   43711.9521455
_cell_formula_units_Z   8
loop_
 _symmetry_equiv_pos_site_id
 _symmetry_equiv_pos_as_xyz
  1  'x, y, z'
loop_
 _atom_site_type_symbol
 _atom_site_label
 _atom_site_symmetry_multiplicity
 _atom_site_fract_x
 _atom_site_fract_y
 _atom_site_fract_z
 _atom_site_occupancy
  O  O1  1  0.907537  0.955410  0.258680  1
  O  O2  1  0.092495  0.955406  0.258680  1
  O  O3  1  0.092507  0.544534  0.258679  1
  O  O4  1  0.907545  0.544507  0.258679  1
  O  O5  1  0.000000  0.875991  0.248451  1
  O  O6  1  -0.000000  0.623923  0.248447  1
  O  O7  1  0.092782  0.838295  0.235105  1
  O  O8  1  0.907206  0.838280  0.235108  1
  O  O9  1  0.907212  0.661641  0.235102  1
  O  O10  1  0.092790  0.661629  0.235104  1
  O  O11  1  0.000000  0.749954  0.243149  1
  O  O12  1  0.000000  0.749964  0.203715  1
  O  O13  1  0.909978  0.845628  0.211058  1
  O  O14  1  0.090041  0.845801  0.211030  1
  O  O15  1  0.090071  0.654124  0.211030  1
  O  O16  1  0.910011  0.654218  0.211054  1
  O  O17  1  0.000000  0.873132  0.197487  1
  O  O18  1  0.000000  0.626833  0.197484  1
  O  O19  1  0.903425  0.557445  0.186899  1
  O  O20  1  0.096021  0.558717  0.186817  1
  O  O21  1  0.095947  0.941251  0.186818  1
  O  O22  1  0.903359  0.942594  0.186906  1
  O  O23  1  0.760890  0.948802  0.268934  1
  O  O24  1  0.239132  0.948796  0.268937  1
  O  O25  1  0.239133  0.551131  0.268935  1
  O  O26  1  0.760882  0.551127  0.268931  1
  O  O27  1  0.745314  0.949430  0.252070  1
  O  O28  1  0.254733  0.949318  0.252074  1
  O  O29  1  0.254750  0.550606  0.252073  1
  O  O30  1  0.745341  0.550513  0.252066  1
  O  O31  1  0.786715  0.845482  0.222875  1
  O  O32  1  0.213151  0.845428  0.222864  1
  O  O33  1  0.213179  0.654537  0.222863  1
  O  O34  1  0.786719  0.654502  0.222866  1
  O  O35  1  0.739718  0.874570  0.238585  1
  O  O36  1  0.260310  0.874560  0.238574  1
  O  O37  1  0.260323  0.625369  0.238573  1
  O  O38  1  0.739726  0.625336  0.238577  1
  O  O39  1  0.779935  0.749957  0.234036  1
  O  O40  1  0.220018  0.749968  0.234033  1
  O  O41  1  0.739843  0.848103  0.206315  1
  O  O42  1  0.260240  0.848071  0.206317  1
  O  O43  1  0.260272  0.651915  0.206317  1
  O  O44  1  0.739921  0.651912  0.206304  1
  O  O45  1  0.812621  0.949935  0.213676  1
  O  O46  1  0.187522  0.949988  0.213685  1
  O  O47  1  0.187668  0.549973  0.213688  1
  O  O48  1  0.812402  0.549997  0.213679  1
  O  O49  1  0.759789  0.948924  0.176282  1
  O  O50  1  0.240483  0.949030  0.176306  1
  O  O51  1  0.240540  0.550911  0.176307  1
  O  O52  1  0.759779  0.550870  0.176290  1
  O  O53  1  0.747940  -0.000000  0.191055  1
  O  O54  1  0.754423  0.873743  0.190166  1
  O  O55  1  0.246104  0.874024  0.190193  1
  O  O56  1  0.246176  0.625967  0.190191  1
  O  O57  1  0.754539  0.626424  0.190146  1
  O  O58  1  0.302064  0.874102  0.281851  1
  O  O59  1  0.697992  0.874112  0.281852  1
  O  O60  1  0.697953  0.625824  0.281848  1
  O  O61  1  0.302035  0.625811  0.281852  1
  O  O62  1  0.589487  0.946940  0.272410  1
  O  O63  1  0.410556  0.946934  0.272407  1
  O  O64  1  0.410545  0.552983  0.272408  1
  O  O65  1  0.589474  0.552991  0.272406  1
  O  O66  1  0.594945  0.948949  0.243379  1
  O  O67  1  0.405113  0.948905  0.243383  1
  O  O68  1  0.405127  0.551018  0.243380  1
  O  O69  1  0.594960  0.550978  0.243378  1
  O  O70  1  0.594903  0.837406  0.195860  1
  O  O71  1  0.405256  0.837349  0.195874  1
  O  O72  1  0.405309  0.662681  0.195877  1
  O  O73  1  0.594985  0.662638  0.195853  1
  O  O74  1  0.725804  0.750050  0.195656  1
  O  O75  1  0.274375  0.749996  0.195648  1
  O  O76  1  0.590807  0.948978  0.171637  1
  O  O77  1  0.409378  0.949190  0.171678  1
  O  O78  1  0.409403  0.550835  0.171675  1
  O  O79  1  0.590835  0.551076  0.171641  1
  O  O80  1  0.500045  0.961476  0.257633  1
  O  O81  1  0.500030  0.538442  0.257631  1
  O  O82  1  0.500071  0.750017  0.187974  1
  O  O83  1  0.499928  0.874950  0.182604  1
  O  O84  1  0.499914  0.625079  0.182606  1
  O  O85  1  0.000000  0.500162  0.198140  1
  O  O86  1  0.000000  0.000000  0.198144  1
  O  O87  1  0.748080  0.500670  0.191115  1
  O  O88  1  0.000000  0.000000  0.246190  1
  O  O89  1  0.000000  0.499023  0.246190  1
  O  O90  1  0.500000  0.249971  0.178471  1
  O  O91  1  0.409948  0.345680  0.171133  1
  O  O92  1  0.590012  0.345780  0.171154  1
  O  O93  1  0.589976  0.154077  0.171158  1
  O  O94  1  0.409914  0.154264  0.171133  1
  O  O95  1  0.499598  0.373152  0.184699  1
  O  O96  1  0.499515  0.126835  0.184703  1
  O  O97  1  0.403351  0.057389  0.195283  1
  O  O98  1  0.595943  0.058718  0.195371  1
  O  O99  1  0.596008  0.441328  0.195363  1
  O  O100  1  0.403422  0.442582  0.195281  1
  O  O101  1  0.500087  0.358004  0.257889  1
  O  O102  1  0.500089  0.141921  0.257890  1
  O  O103  1  0.594145  0.342826  0.243981  1
  O  O104  1  0.406025  0.342807  0.243985  1
  O  O105  1  0.406013  0.157112  0.243986  1
  O  O106  1  0.594132  0.157090  0.243981  1
  O  O107  1  0.500042  0.448218  0.246534  1
  O  O108  1  0.500024  0.051703  0.246536  1
  O  O109  1  0.500022  0.448194  0.269093  1
  O  O110  1  0.500024  0.051727  0.269094  1
  O  O111  1  0.410193  0.341466  0.272242  1
  O  O112  1  0.589872  0.341473  0.272244  1
  O  O113  1  0.589864  0.158446  0.272246  1
  O  O114  1  0.410183  0.158449  0.272243  1
  O  O115  1  0.794790  0.053066  0.260042  1
  O  O116  1  0.205288  0.053034  0.260039  1
  O  O117  1  0.205286  0.446893  0.260038  1
  O  O118  1  0.794779  0.446860  0.260039  1
  O  O119  1  0.239855  0.348097  0.175880  1
  O  O120  1  0.760245  0.348085  0.175865  1
  O  O121  1  0.760169  0.151933  0.175877  1
  O  O122  1  0.239819  0.151889  0.175881  1
  O  O123  1  0.312558  0.449974  0.168513  1
  O  O124  1  0.687499  0.449984  0.168502  1
  O  O125  1  0.687722  0.049967  0.168498  1
  O  O126  1  0.312444  0.049998  0.168511  1
  O  O127  1  0.259816  0.449044  0.205898  1
  O  O128  1  0.740522  0.448993  0.205881  1
  O  O129  1  0.740516  0.050783  0.205874  1
  O  O130  1  0.259773  0.050881  0.205897  1
  O  O131  1  0.247953  0.000000  0.191086  1
  O  O132  1  0.248009  0.499457  0.191095  1
  O  O133  1  0.254504  0.373643  0.192032  1
  O  O134  1  0.746148  0.374102  0.191986  1
  O  O135  1  0.746036  0.126068  0.192008  1
  O  O136  1  0.254439  0.126347  0.192035  1
  O  O137  1  0.284373  0.249962  0.241671  1
  O  O138  1  0.715744  0.249952  0.241661  1
  O  O139  1  0.247962  0.373663  0.236770  1
  O  O140  1  0.752175  0.373647  0.236756  1
  O  O141  1  0.752149  0.126256  0.236754  1
  O  O142  1  0.247943  0.126262  0.236771  1
  O  O143  1  0.255390  0.341574  0.252647  1
  O  O144  1  0.744783  0.341557  0.252636  1
  O  O145  1  0.744771  0.158344  0.252636  1
  O  O146  1  0.255376  0.158356  0.252648  1
  O  O147  1  0.238893  0.344632  0.269295  1
  O  O148  1  0.761159  0.344591  0.269289  1
  O  O149  1  0.761144  0.155336  0.269289  1
  O  O150  1  0.238880  0.155291  0.269296  1
  O  O151  1  0.307431  0.249959  0.278576  1
  O  O152  1  0.692622  0.249961  0.278576  1
  O  O153  1  0.701048  0.499968  0.283197  1
  O  O154  1  0.094925  0.337377  0.186330  1
  O  O155  1  0.905276  0.337360  0.186312  1
  O  O156  1  0.905197  0.162662  0.186320  1
  O  O157  1  0.094875  0.162642  0.186329  1
  O  O158  1  0.225770  0.249995  0.186534  1
  O  O159  1  0.774329  0.250047  0.186538  1
  O  O160  1  0.090849  0.448947  0.210543  1
  O  O161  1  0.909420  0.449245  0.210512  1
  O  O162  1  0.909375  0.050799  0.210509  1
  O  O163  1  0.090833  0.051086  0.210543  1
  O  O164  1  0.214825  0.444821  0.222681  1
  O  O165  1  0.785492  0.444788  0.222663  1
  O  O166  1  0.785441  0.055106  0.222661  1
  O  O167  1  0.214811  0.055109  0.222682  1
  O  O168  1  0.094594  0.439718  0.234909  1
  O  O169  1  0.905511  0.439715  0.234904  1
  O  O170  1  0.905493  0.060203  0.234902  1
  O  O171  1  0.094574  0.060202  0.234909  1
  O  O172  1  0.092084  0.346822  0.259262  1
  O  O173  1  0.908018  0.346816  0.259263  1
  O  O174  1  0.908006  0.153114  0.259263  1
  O  O175  1  0.092070  0.153093  0.259262  1
  O  O176  1  -0.000000  0.250009  0.194215  1
  O  O177  1  0.000000  0.374946  0.199582  1
  O  O178  1  -0.000000  0.125061  0.199582  1
  O  O179  1  0.000000  0.371825  0.245848  1
  O  O180  1  -0.000000  0.128091  0.245848  1
  O  O181  1  -0.000000  0.249959  0.252259  1
  O  O182  1  0.250856  0.499505  0.237219  1
  O  O183  1  0.749237  0.499483  0.237202  1
  O  O184  1  0.500750  0.499850  0.184040  1
  O  O185  1  0.749237  0.000000  0.237203  1
  O  O186  1  0.250841  0.000000  0.237220  1
  O  O187  1  0.500761  0.000000  0.184042  1
  O  O188  1  0.407454  0.955436  0.074471  1
  O  O189  1  0.592412  0.955411  0.074469  1
  O  O190  1  0.592417  0.544527  0.074467  1
  O  O191  1  0.407457  0.544550  0.074468  1
  O  O192  1  0.499926  0.500913  0.135996  1
  O  O193  1  0.499898  0.000000  0.135995  1
  O  O194  1  0.499867  0.876010  0.064239  1
  O  O195  1  0.499978  0.623943  0.064237  1
  O  O196  1  0.592690  0.838319  0.050899  1
  O  O197  1  0.407115  0.838293  0.050891  1
  O  O198  1  0.407166  0.661642  0.050896  1
  O  O199  1  0.592740  0.661664  0.050889  1
  O  O200  1  0.499925  0.749976  0.058938  1
  O  O201  1  -0.000000  0.858044  0.124297  1
  O  O202  1  0.000000  0.641935  0.124296  1
  O  O203  1  0.094001  0.842861  0.138208  1
  O  O204  1  0.905878  0.842830  0.138197  1
  O  O205  1  0.905901  0.657130  0.138199  1
  O  O206  1  0.094021  0.657107  0.138207  1
  O  O207  1  -0.000000  0.948252  0.135653  1
  O  O208  1  -0.000000  0.551718  0.135651  1
  O  O209  1  -0.000000  0.948230  0.113093  1
  O  O210  1  -0.000000  0.551745  0.113093  1
  O  O211  1  0.910048  0.841501  0.109947  1
  O  O212  1  0.089726  0.841501  0.109940  1
  O  O213  1  0.089745  0.658461  0.109940  1
  O  O214  1  0.910066  0.658479  0.109945  1
  O  O215  1  0.260798  0.948803  0.084723  1
  O  O216  1  0.739038  0.948845  0.084726  1
  O  O217  1  0.739086  0.551169  0.084718  1
  O  O218  1  0.260838  0.551137  0.084726  1
  O  O219  1  0.294639  0.553082  0.122148  1
  O  O220  1  0.705146  0.553046  0.122144  1
  O  O221  1  0.705155  0.946922  0.122148  1
  O  O222  1  0.294653  0.946891  0.122148  1
  O  O223  1  0.245250  0.949364  0.067858  1
  O  O224  1  0.754667  0.949399  0.067865  1
  O  O225  1  0.754610  0.550595  0.067853  1
  O  O226  1  0.245201  0.550568  0.067864  1
  O  O227  1  0.286644  0.845379  0.038650  1
  O  O228  1  0.713094  0.845545  0.038664  1
  O  O229  1  0.713182  0.654599  0.038647  1
  O  O230  1  0.286738  0.654438  0.038661  1
  O  O231  1  0.239620  0.874574  0.054362  1
  O  O232  1  0.760212  0.874588  0.054373  1
  O  O233  1  0.760246  0.625381  0.054357  1
  O  O234  1  0.239652  0.625365  0.054371  1
  O  O235  1  0.279888  0.749958  0.049823  1
  O  O236  1  0.719963  0.749999  0.049822  1
  O  O237  1  0.784245  0.749971  0.140512  1
  O  O238  1  0.215606  0.749988  0.140527  1
  O  O239  1  0.747807  0.873669  0.145410  1
  O  O240  1  0.252027  0.873685  0.145433  1
  O  O241  1  0.252051  0.626290  0.145432  1
  O  O242  1  0.747842  0.626271  0.145414  1
  O  O243  1  0.755251  0.841577  0.129535  1
  O  O244  1  0.244637  0.841596  0.129552  1
  O  O245  1  0.244659  0.658386  0.129552  1
  O  O246  1  0.755265  0.658354  0.129537  1
  O  O247  1  0.738734  0.844671  0.112887  1
  O  O248  1  0.261003  0.844620  0.112900  1
  O  O249  1  0.261023  0.655354  0.112899  1
  O  O250  1  0.738760  0.655309  0.112889  1
  O  O251  1  0.802004  0.874130  0.097637  1
  O  O252  1  0.197909  0.874131  0.097642  1
  O  O253  1  0.197917  0.625836  0.097642  1
  O  O254  1  0.801993  0.625848  0.097637  1
  O  O255  1  0.807318  0.749988  0.103611  1
  O  O256  1  0.192503  0.749984  0.103612  1
  O  O257  1  0.089398  0.946963  0.088200  1
  O  O258  1  0.910469  0.946968  0.088194  1
  O  O259  1  0.910486  0.553007  0.088197  1
  O  O260  1  0.089415  0.553021  0.088195  1
  O  O261  1  0.201004  0.000000  0.098990  1
  O  O262  1  0.094877  0.948955  0.059168  1
  O  O263  1  0.905044  0.948926  0.059172  1
  O  O264  1  0.904995  0.551011  0.059166  1
  O  O265  1  0.094829  0.551031  0.059171  1
  O  O266  1  0.714769  0.944818  0.159500  1
  O  O267  1  0.285432  0.944820  0.159525  1
  O  O268  1  0.285434  0.555136  0.159524  1
  O  O269  1  0.714803  0.555102  0.159503  1
  O  O270  1  0.594463  0.939744  0.147276  1
  O  O271  1  0.405381  0.939736  0.147281  1
  O  O272  1  0.405393  0.560220  0.147281  1
  O  O273  1  0.594475  0.560222  0.147279  1
  O  O274  1  0.591932  0.846854  0.122921  1
  O  O275  1  0.407866  0.846833  0.122924  1
  O  O276  1  0.407887  0.653118  0.122924  1
  O  O277  1  0.591952  0.653117  0.122922  1
  O  O278  1  -0.000000  0.961504  0.073421  1
  O  O279  1  -0.000000  0.538469  0.073420  1
  O  O280  1  0.499907  0.871842  0.136337  1
  O  O281  1  0.499929  0.628112  0.136338  1
  O  O282  1  0.499928  0.749978  0.129926  1
  O  O283  1  0.798917  0.000000  0.098989  1
  O  O284  1  0.249113  0.500454  0.144984  1
  O  O285  1  0.750724  0.500426  0.144964  1
  O  O286  1  0.750744  0.000000  0.144964  1
  O  O287  1  0.249121  0.000000  0.144986  1
  O  O288  1  0.407418  0.455440  0.123508  1
  O  O289  1  0.592375  0.455403  0.123505  1
  O  O290  1  0.592383  0.044563  0.123507  1
  O  O291  1  0.407421  0.044544  0.123508  1
  O  O292  1  0.499926  0.000000  0.061981  1
  O  O293  1  0.499926  0.499043  0.061979  1
  O  O294  1  0.499881  0.376008  0.133737  1
  O  O295  1  0.499896  0.123945  0.133741  1
  O  O296  1  0.592678  0.338310  0.147081  1
  O  O297  1  0.407103  0.338306  0.147082  1
  O  O298  1  0.407100  0.161661  0.147085  1
  O  O299  1  0.592674  0.161648  0.147086  1
  O  O300  1  0.499894  0.249974  0.139040  1
  O  O301  1  -0.000000  0.358029  0.073678  1
  O  O302  1  0.000000  0.141944  0.073678  1
  O  O303  1  0.093973  0.342818  0.059775  1
  O  O304  1  0.905853  0.342866  0.059768  1
  O  O305  1  0.905892  0.157146  0.059774  1
  O  O306  1  0.094012  0.157100  0.059770  1
  O  O307  1  -0.000000  0.448243  0.062323  1
  O  O308  1  -0.000000  0.051723  0.062324  1
  O  O309  1  -0.000000  0.448221  0.084882  1
  O  O310  1  0.000000  0.051756  0.084882  1
  O  O311  1  0.910110  0.341502  0.088034  1
  O  O312  1  0.089790  0.341491  0.088030  1
  O  O313  1  0.089771  0.158479  0.088034  1
  O  O314  1  0.910089  0.158476  0.088031  1
  O  O315  1  0.260761  0.448818  0.113256  1
  O  O316  1  0.739000  0.448812  0.113247  1
  O  O317  1  0.739020  0.051158  0.113250  1
  O  O318  1  0.260774  0.051158  0.113256  1
  O  O319  1  0.294657  0.053055  0.075830  1
  O  O320  1  0.705156  0.053083  0.075827  1
  O  O321  1  0.705214  0.446909  0.075826  1
  O  O322  1  0.294702  0.446890  0.075830  1
  O  O323  1  0.245213  0.449421  0.130120  1
  O  O324  1  0.754631  0.449339  0.130109  1
  O  O325  1  0.754623  0.050645  0.130112  1
  O  O326  1  0.245213  0.050547  0.130121  1
  O  O327  1  0.286653  0.345486  0.159319  1
  O  O328  1  0.713100  0.345463  0.159318  1
  O  O329  1  0.713087  0.154554  0.159328  1
  O  O330  1  0.286622  0.154503  0.159320  1
  O  O331  1  0.239607  0.374601  0.143610  1
  O  O332  1  0.760197  0.374562  0.143607  1
  O  O333  1  0.760191  0.125383  0.143616  1
  O  O334  1  0.239607  0.125373  0.143610  1
  O  O335  1  0.279836  0.249988  0.148154  1
  O  O336  1  0.719911  0.249974  0.148155  1
  O  O337  1  0.784253  0.250001  0.057452  1
  O  O338  1  0.215619  0.249962  0.057456  1
  O  O339  1  0.747818  0.373696  0.052542  1
  O  O340  1  0.252028  0.373661  0.052560  1
  O  O341  1  0.252055  0.126265  0.052547  1
  O  O342  1  0.747842  0.126293  0.052558  1
  O  O343  1  0.755211  0.341626  0.068423  1
  O  O344  1  0.244606  0.341559  0.068437  1
  O  O345  1  0.244641  0.158336  0.068428  1
  O  O346  1  0.755251  0.158415  0.068434  1
  O  O347  1  0.738828  0.344627  0.085075  1
  O  O348  1  0.261096  0.344641  0.085085  1
  O  O349  1  0.261054  0.155336  0.085080  1
  O  O350  1  0.738785  0.155330  0.085083  1
  O  O351  1  0.801941  0.374136  0.100332  1
  O  O352  1  0.197871  0.374127  0.100338  1
  O  O353  1  0.197908  0.125838  0.100336  1
  O  O354  1  0.801981  0.125848  0.100336  1
  O  O355  1  0.807337  0.249990  0.094363  1
  O  O356  1  0.192534  0.249983  0.094365  1
  O  O357  1  0.089358  0.446957  0.109778  1
  O  O358  1  0.910427  0.446952  0.109779  1
  O  O359  1  0.910452  0.053032  0.109783  1
  O  O360  1  0.089382  0.053016  0.109778  1
  O  O361  1  0.798869  0.499992  0.098985  1
  O  O362  1  0.094835  0.448959  0.138809  1
  O  O363  1  0.905003  0.448918  0.138803  1
  O  O364  1  0.905004  0.051063  0.138804  1
  O  O365  1  0.094839  0.051005  0.138810  1
  O  O366  1  0.714494  0.444895  0.038453  1
  O  O367  1  0.285150  0.444761  0.038467  1
  O  O368  1  0.285334  0.055066  0.038457  1
  O  O369  1  0.714699  0.055172  0.038467  1
  O  O370  1  0.594451  0.439746  0.050692  1
  O  O371  1  0.405368  0.439734  0.050696  1
  O  O372  1  0.405418  0.060216  0.050694  1
  O  O373  1  0.594501  0.060216  0.050698  1
  O  O374  1  0.591974  0.346851  0.075049  1
  O  O375  1  0.407910  0.346836  0.075052  1
  O  O376  1  0.407892  0.153112  0.075051  1
  O  O377  1  0.591958  0.153140  0.075052  1
  O  O378  1  -0.000000  0.461495  0.124554  1
  O  O379  1  0.000000  0.038474  0.124556  1
  O  O380  1  0.499929  0.371846  0.061636  1
  O  O381  1  0.499933  0.128111  0.061637  1
  O  O382  1  0.499922  0.249982  0.068047  1
  O  O383  1  0.200967  0.499982  0.098989  1
  O  O384  1  0.249174  -0.000000  0.052998  1
  O  O385  1  0.750784  -0.000000  0.053005  1
  O  O386  1  0.750709  0.499532  0.052993  1
  O  O387  1  0.249092  0.499502  0.053005  1
  O  O388  1  0.907537  0.955410  0.627104  1
  O  O389  1  0.092495  0.955406  0.627104  1
  O  O390  1  0.092507  0.544534  0.627102  1
  O  O391  1  0.907545  0.544507  0.627103  1
  O  O392  1  0.000000  0.875991  0.616874  1
  O  O393  1  -0.000000  0.623923  0.616871  1
  O  O394  1  0.092782  0.838295  0.603529  1
  O  O395  1  0.907206  0.838280  0.603531  1
  O  O396  1  0.907212  0.661641  0.603526  1
  O  O397  1  0.092790  0.661629  0.603527  1
  O  O398  1  -0.000000  0.749954  0.611572  1
  O  O399  1  -0.000000  0.749964  0.572139  1
  O  O400  1  0.909978  0.845628  0.579482  1
  O  O401  1  0.090041  0.845801  0.579453  1
  O  O402  1  0.090071  0.654124  0.579453  1
  O  O403  1  0.910011  0.654218  0.579477  1
  O  O404  1  -0.000000  0.873132  0.565910  1
  O  O405  1  -0.000000  0.626833  0.565908  1
  O  O406  1  0.903425  0.557445  0.555322  1
  O  O407  1  0.096021  0.558717  0.555241  1
  O  O408  1  0.095947  0.941251  0.555242  1
  O  O409  1  0.903359  0.942594  0.555329  1
  O  O410  1  0.760890  0.948802  0.637358  1
  O  O411  1  0.239132  0.948796  0.637360  1
  O  O412  1  0.239133  0.551131  0.637359  1
  O  O413  1  0.760882  0.551127  0.637355  1
  O  O414  1  0.745314  0.949430  0.620494  1
  O  O415  1  0.254733  0.949318  0.620498  1
  O  O416  1  0.254750  0.550606  0.620496  1
  O  O417  1  0.745341  0.550513  0.620490  1
  O  O418  1  0.786715  0.845482  0.591299  1
  O  O419  1  0.213151  0.845428  0.591287  1
  O  O420  1  0.213179  0.654537  0.591286  1
  O  O421  1  0.786719  0.654502  0.591290  1
  O  O422  1  0.739718  0.874570  0.607009  1
  O  O423  1  0.260310  0.874560  0.606997  1
  O  O424  1  0.260323  0.625369  0.606996  1
  O  O425  1  0.739726  0.625336  0.607000  1
  O  O426  1  0.779935  0.749957  0.602459  1
  O  O427  1  0.220018  0.749968  0.602456  1
  O  O428  1  0.739843  0.848103  0.574738  1
  O  O429  1  0.260240  0.848071  0.574741  1
  O  O430  1  0.260272  0.651915  0.574740  1
  O  O431  1  0.739921  0.651912  0.574727  1
  O  O432  1  0.812621  0.949935  0.582099  1
  O  O433  1  0.187522  0.949988  0.582109  1
  O  O434  1  0.187668  0.549973  0.582111  1
  O  O435  1  0.812402  0.549997  0.582102  1
  O  O436  1  0.759789  0.948924  0.544706  1
  O  O437  1  0.240483  0.949030  0.544730  1
  O  O438  1  0.240540  0.550911  0.544731  1
  O  O439  1  0.759779  0.550870  0.544714  1
  O  O440  1  0.747940  0.000000  0.559479  1
  O  O441  1  0.754423  0.873743  0.558590  1
  O  O442  1  0.246104  0.874024  0.558617  1
  O  O443  1  0.246176  0.625967  0.558614  1
  O  O444  1  0.754539  0.626424  0.558569  1
  O  O445  1  0.302064  0.874102  0.650275  1
  O  O446  1  0.697992  0.874112  0.650276  1
  O  O447  1  0.697953  0.625824  0.650271  1
  O  O448  1  0.302035  0.625811  0.650276  1
  O  O449  1  0.589487  0.946940  0.640834  1
  O  O450  1  0.410556  0.946934  0.640831  1
  O  O451  1  0.410545  0.552983  0.640831  1
  O  O452  1  0.589474  0.552991  0.640830  1
  O  O453  1  0.594945  0.948949  0.611803  1
  O  O454  1  0.405113  0.948905  0.611806  1
  O  O455  1  0.405127  0.551018  0.611804  1
  O  O456  1  0.594960  0.550978  0.611801  1
  O  O457  1  0.594903  0.837406  0.564283  1
  O  O458  1  0.405256  0.837349  0.564298  1
  O  O459  1  0.405309  0.662681  0.564300  1
  O  O460  1  0.594985  0.662638  0.564277  1
  O  O461  1  0.725804  0.750050  0.564079  1
  O  O462  1  0.274375  0.749996  0.564072  1
  O  O463  1  0.590807  0.948978  0.540061  1
  O  O464  1  0.409378  0.949190  0.540101  1
  O  O465  1  0.409403  0.550835  0.540098  1
  O  O466  1  0.590835  0.551076  0.540065  1
  O  O467  1  0.500045  0.961476  0.626056  1
  O  O468  1  0.500030  0.538442  0.626055  1
  O  O469  1  0.500071  0.750017  0.556397  1
  O  O470  1  0.499928  0.874950  0.551028  1
  O  O471  1  0.499914  0.625079  0.551029  1
  O  O472  1  -0.000000  0.500162  0.566564  1
  O  O473  1  0.000000  0.000000  0.566568  1
  O  O474  1  0.748080  0.500670  0.559538  1
  O  O475  1  0.000000  0.000000  0.614614  1
  O  O476  1  -0.000000  0.499023  0.614614  1
  O  O477  1  0.500000  0.249971  0.546895  1
  O  O478  1  0.409948  0.345680  0.539556  1
  O  O479  1  0.590012  0.345780  0.539578  1
  O  O480  1  0.589976  0.154077  0.539582  1
  O  O481  1  0.409914  0.154264  0.539557  1
  O  O482  1  0.499598  0.373152  0.553123  1
  O  O483  1  0.499515  0.126835  0.553126  1
  O  O484  1  0.403351  0.057389  0.563706  1
  O  O485  1  0.595943  0.058718  0.563794  1
  O  O486  1  0.596008  0.441328  0.563786  1
  O  O487  1  0.403422  0.442582  0.563705  1
  O  O488  1  0.500087  0.358004  0.626313  1
  O  O489  1  0.500089  0.141921  0.626314  1
  O  O490  1  0.594145  0.342826  0.612404  1
  O  O491  1  0.406025  0.342807  0.612409  1
  O  O492  1  0.406013  0.157112  0.612410  1
  O  O493  1  0.594132  0.157090  0.612404  1
  O  O494  1  0.500042  0.448218  0.614958  1
  O  O495  1  0.500024  0.051703  0.614960  1
  O  O496  1  0.500022  0.448194  0.637517  1
  O  O497  1  0.500024  0.051727  0.637517  1
  O  O498  1  0.410193  0.341466  0.640666  1
  O  O499  1  0.589872  0.341473  0.640667  1
  O  O500  1  0.589864  0.158446  0.640670  1
  O  O501  1  0.410183  0.158449  0.640666  1
  O  O502  1  0.794790  0.053066  0.628466  1
  O  O503  1  0.205288  0.053034  0.628463  1
  O  O504  1  0.205286  0.446893  0.628462  1
  O  O505  1  0.794779  0.446860  0.628463  1
  O  O506  1  0.239855  0.348097  0.544303  1
  O  O507  1  0.760245  0.348085  0.544288  1
  O  O508  1  0.760169  0.151933  0.544300  1
  O  O509  1  0.239819  0.151889  0.544304  1
  O  O510  1  0.312558  0.449974  0.536937  1
  O  O511  1  0.687499  0.449984  0.536926  1
  O  O512  1  0.687722  0.049967  0.536922  1
  O  O513  1  0.312444  0.049998  0.536935  1
  O  O514  1  0.259816  0.449044  0.574321  1
  O  O515  1  0.740522  0.448993  0.574304  1
  O  O516  1  0.740516  0.050783  0.574298  1
  O  O517  1  0.259773  0.050881  0.574321  1
  O  O518  1  0.247953  0.000000  0.559510  1
  O  O519  1  0.248009  0.499457  0.559519  1
  O  O520  1  0.254504  0.373643  0.560456  1
  O  O521  1  0.746148  0.374102  0.560410  1
  O  O522  1  0.746036  0.126068  0.560431  1
  O  O523  1  0.254439  0.126347  0.560458  1
  O  O524  1  0.284373  0.249962  0.610095  1
  O  O525  1  0.715744  0.249952  0.610084  1
  O  O526  1  0.247962  0.373663  0.605193  1
  O  O527  1  0.752175  0.373647  0.605179  1
  O  O528  1  0.752149  0.126256  0.605178  1
  O  O529  1  0.247943  0.126262  0.605194  1
  O  O530  1  0.255390  0.341574  0.621071  1
  O  O531  1  0.744783  0.341557  0.621060  1
  O  O532  1  0.744771  0.158344  0.621059  1
  O  O533  1  0.255376  0.158356  0.621071  1
  O  O534  1  0.238893  0.344632  0.637718  1
  O  O535  1  0.761159  0.344591  0.637712  1
  O  O536  1  0.761144  0.155336  0.637713  1
  O  O537  1  0.238880  0.155291  0.637719  1
  O  O538  1  0.307431  0.249959  0.646999  1
  O  O539  1  0.692622  0.249961  0.646999  1
  O  O540  1  0.701048  0.499968  0.651620  1
  O  O541  1  0.094925  0.337377  0.554754  1
  O  O542  1  0.905276  0.337360  0.554735  1
  O  O543  1  0.905197  0.162662  0.554744  1
  O  O544  1  0.094875  0.162642  0.554752  1
  O  O545  1  0.225770  0.249995  0.554958  1
  O  O546  1  0.774329  0.250047  0.554962  1
  O  O547  1  0.090849  0.448947  0.578966  1
  O  O548  1  0.909420  0.449245  0.578936  1
  O  O549  1  0.909375  0.050799  0.578933  1
  O  O550  1  0.090833  0.051086  0.578967  1
  O  O551  1  0.214825  0.444821  0.591104  1
  O  O552  1  0.785492  0.444788  0.591086  1
  O  O553  1  0.785441  0.055106  0.591084  1
  O  O554  1  0.214811  0.055109  0.591106  1
  O  O555  1  0.094594  0.439718  0.603332  1
  O  O556  1  0.905511  0.439715  0.603328  1
  O  O557  1  0.905493  0.060203  0.603325  1
  O  O558  1  0.094574  0.060202  0.603333  1
  O  O559  1  0.092084  0.346822  0.627686  1
  O  O560  1  0.908018  0.346816  0.627686  1
  O  O561  1  0.908006  0.153114  0.627686  1
  O  O562  1  0.092070  0.153093  0.627686  1
  O  O563  1  -0.000000  0.250009  0.562639  1
  O  O564  1  -0.000000  0.374946  0.568005  1
  O  O565  1  -0.000000  0.125061  0.568005  1
  O  O566  1  0.000000  0.371825  0.614272  1
  O  O567  1  -0.000000  0.128091  0.614271  1
  O  O568  1  -0.000000  0.249959  0.620682  1
  O  O569  1  0.250856  0.499505  0.605642  1
  O  O570  1  0.749237  0.499483  0.605626  1
  O  O571  1  0.500750  0.499850  0.552463  1
  O  O572  1  0.749237  0.000000  0.605626  1
  O  O573  1  0.250841  0.000000  0.605643  1
  O  O574  1  0.500761  0.000000  0.552466  1
  O  O575  1  0.407454  0.955436  0.442894  1
  O  O576  1  0.592412  0.955411  0.442892  1
  O  O577  1  0.592417  0.544527  0.442891  1
  O  O578  1  0.407457  0.544550  0.442891  1
  O  O579  1  0.499926  0.500913  0.504419  1
  O  O580  1  0.499898  0.000000  0.504418  1
  O  O581  1  0.499867  0.876010  0.432663  1
  O  O582  1  0.499978  0.623943  0.432660  1
  O  O583  1  0.592690  0.838319  0.419322  1
  O  O584  1  0.407115  0.838293  0.419314  1
  O  O585  1  0.407166  0.661642  0.419319  1
  O  O586  1  0.592740  0.661664  0.419313  1
  O  O587  1  0.499925  0.749976  0.427361  1
  O  O588  1  0.000000  0.858044  0.492721  1
  O  O589  1  0.000000  0.641935  0.492720  1
  O  O590  1  0.094001  0.842861  0.506631  1
  O  O591  1  0.905878  0.842830  0.506621  1
  O  O592  1  0.905901  0.657130  0.506622  1
  O  O593  1  0.094021  0.657107  0.506630  1
  O  O594  1  0.000000  0.948252  0.504077  1
  O  O595  1  -0.000000  0.551718  0.504075  1
  O  O596  1  0.000000  0.948230  0.481517  1
  O  O597  1  0.000000  0.551745  0.481516  1
  O  O598  1  0.910048  0.841501  0.478371  1
  O  O599  1  0.089726  0.841501  0.478363  1
  O  O600  1  0.089745  0.658461  0.478363  1
  O  O601  1  0.910066  0.658479  0.478369  1
  O  O602  1  0.260798  0.948803  0.453147  1
  O  O603  1  0.739038  0.948845  0.453149  1
  O  O604  1  0.739086  0.551169  0.453142  1
  O  O605  1  0.260838  0.551137  0.453150  1
  O  O606  1  0.294639  0.553082  0.490572  1
  O  O607  1  0.705146  0.553046  0.490568  1
  O  O608  1  0.705155  0.946922  0.490572  1
  O  O609  1  0.294653  0.946891  0.490572  1
  O  O610  1  0.245250  0.949364  0.436281  1
  O  O611  1  0.754667  0.949399  0.436288  1
  O  O612  1  0.754610  0.550595  0.436277  1
  O  O613  1  0.245201  0.550568  0.436288  1
  O  O614  1  0.286644  0.845379  0.407074  1
  O  O615  1  0.713094  0.845545  0.407088  1
  O  O616  1  0.713182  0.654599  0.407070  1
  O  O617  1  0.286738  0.654438  0.407085  1
  O  O618  1  0.239620  0.874574  0.422785  1
  O  O619  1  0.760212  0.874588  0.422797  1
  O  O620  1  0.760246  0.625381  0.422780  1
  O  O621  1  0.239652  0.625365  0.422795  1
  O  O622  1  0.279888  0.749958  0.418246  1
  O  O623  1  0.719963  0.749999  0.418246  1
  O  O624  1  0.784245  0.749971  0.508935  1
  O  O625  1  0.215606  0.749988  0.508951  1
  O  O626  1  0.747807  0.873669  0.513834  1
  O  O627  1  0.252027  0.873685  0.513856  1
  O  O628  1  0.252051  0.626290  0.513856  1
  O  O629  1  0.747842  0.626271  0.513838  1
  O  O630  1  0.755251  0.841577  0.497958  1
  O  O631  1  0.244637  0.841596  0.497976  1
  O  O632  1  0.244659  0.658386  0.497975  1
  O  O633  1  0.755265  0.658354  0.497960  1
  O  O634  1  0.738734  0.844671  0.481311  1
  O  O635  1  0.261003  0.844620  0.481323  1
  O  O636  1  0.261023  0.655354  0.481323  1
  O  O637  1  0.738760  0.655309  0.481312  1
  O  O638  1  0.802004  0.874130  0.466061  1
  O  O639  1  0.197909  0.874131  0.466066  1
  O  O640  1  0.197917  0.625836  0.466065  1
  O  O641  1  0.801993  0.625848  0.466060  1
  O  O642  1  0.807318  0.749988  0.472034  1
  O  O643  1  0.192503  0.749984  0.472036  1
  O  O644  1  0.089398  0.946963  0.456624  1
  O  O645  1  0.910469  0.946968  0.456618  1
  O  O646  1  0.910486  0.553007  0.456620  1
  O  O647  1  0.089415  0.553021  0.456618  1
  O  O648  1  0.201004  0.000000  0.467413  1
  O  O649  1  0.094877  0.948955  0.427591  1
  O  O650  1  0.905044  0.948926  0.427596  1
  O  O651  1  0.904995  0.551011  0.427589  1
  O  O652  1  0.094829  0.551031  0.427594  1
  O  O653  1  0.714769  0.944818  0.527924  1
  O  O654  1  0.285432  0.944820  0.527949  1
  O  O655  1  0.285434  0.555136  0.527948  1
  O  O656  1  0.714803  0.555102  0.527926  1
  O  O657  1  0.594463  0.939744  0.515699  1
  O  O658  1  0.405381  0.939736  0.515705  1
  O  O659  1  0.405393  0.560220  0.515704  1
  O  O660  1  0.594475  0.560222  0.515702  1
  O  O661  1  0.591932  0.846854  0.491345  1
  O  O662  1  0.407866  0.846833  0.491348  1
  O  O663  1  0.407887  0.653118  0.491348  1
  O  O664  1  0.591952  0.653117  0.491346  1
  O  O665  1  0.000000  0.961504  0.441845  1
  O  O666  1  -0.000000  0.538469  0.441844  1
  O  O667  1  0.499907  0.871842  0.504761  1
  O  O668  1  0.499929  0.628112  0.504761  1
  O  O669  1  0.499928  0.749978  0.498349  1
  O  O670  1  0.798917  0.000000  0.467413  1
  O  O671  1  0.249113  0.500454  0.513408  1
  O  O672  1  0.750724  0.500426  0.513388  1
  O  O673  1  0.750744  0.000000  0.513387  1
  O  O674  1  0.249121  0.000000  0.513409  1
  O  O675  1  0.407418  0.455440  0.491931  1
  O  O676  1  0.592375  0.455403  0.491929  1
  O  O677  1  0.592383  0.044563  0.491931  1
  O  O678  1  0.407421  0.044544  0.491932  1
  O  O679  1  0.499926  -0.000000  0.430404  1
  O  O680  1  0.499926  0.499043  0.430403  1
  O  O681  1  0.499881  0.376008  0.502161  1
  O  O682  1  0.499896  0.123945  0.502164  1
  O  O683  1  0.592678  0.338310  0.515504  1
  O  O684  1  0.407103  0.338306  0.515506  1
  O  O685  1  0.407100  0.161661  0.515508  1
  O  O686  1  0.592674  0.161648  0.515510  1
  O  O687  1  0.499894  0.249974  0.507463  1
  O  O688  1  -0.000000  0.358029  0.442101  1
  O  O689  1  0.000000  0.141944  0.442102  1
  O  O690  1  0.093973  0.342818  0.428199  1
  O  O691  1  0.905853  0.342866  0.428191  1
  O  O692  1  0.905892  0.157146  0.428198  1
  O  O693  1  0.094012  0.157100  0.428193  1
  O  O694  1  0.000000  0.448243  0.430747  1
  O  O695  1  -0.000000  0.051723  0.430747  1
  O  O696  1  0.000000  0.448221  0.453306  1
  O  O697  1  -0.000000  0.051756  0.453306  1
  O  O698  1  0.910110  0.341502  0.456457  1
  O  O699  1  0.089790  0.341491  0.456454  1
  O  O700  1  0.089771  0.158479  0.456457  1
  O  O701  1  0.910089  0.158476  0.456455  1
  O  O702  1  0.260761  0.448818  0.481679  1
  O  O703  1  0.739000  0.448812  0.481671  1
  O  O704  1  0.739020  0.051158  0.481674  1
  O  O705  1  0.260774  0.051158  0.481680  1
  O  O706  1  0.294657  0.053055  0.444253  1
  O  O707  1  0.705156  0.053083  0.444251  1
  O  O708  1  0.705214  0.446909  0.444249  1
  O  O709  1  0.294702  0.446890  0.444253  1
  O  O710  1  0.245213  0.449421  0.498544  1
  O  O711  1  0.754631  0.449339  0.498533  1
  O  O712  1  0.754623  0.050645  0.498536  1
  O  O713  1  0.245213  0.050547  0.498544  1
  O  O714  1  0.286653  0.345486  0.527743  1
  O  O715  1  0.713100  0.345463  0.527742  1
  O  O716  1  0.713087  0.154554  0.527751  1
  O  O717  1  0.286622  0.154503  0.527744  1
  O  O718  1  0.239607  0.374601  0.512033  1
  O  O719  1  0.760197  0.374562  0.512031  1
  O  O720  1  0.760191  0.125383  0.512040  1
  O  O721  1  0.239607  0.125373  0.512034  1
  O  O722  1  0.279836  0.249988  0.516578  1
  O  O723  1  0.719911  0.249974  0.516579  1
  O  O724  1  0.784253  0.250001  0.425876  1
  O  O725  1  0.215619  0.249962  0.425880  1
  O  O726  1  0.747818  0.373696  0.420965  1
  O  O727  1  0.252028  0.373661  0.420983  1
  O  O728  1  0.252055  0.126265  0.420970  1
  O  O729  1  0.747842  0.126293  0.420982  1
  O  O730  1  0.755211  0.341626  0.436847  1
  O  O731  1  0.244606  0.341559  0.436860  1
  O  O732  1  0.244641  0.158336  0.436851  1
  O  O733  1  0.755251  0.158415  0.436858  1
  O  O734  1  0.738828  0.344627  0.453498  1
  O  O735  1  0.261096  0.344641  0.453509  1
  O  O736  1  0.261054  0.155336  0.453503  1
  O  O737  1  0.738785  0.155330  0.453506  1
  O  O738  1  0.801941  0.374136  0.468755  1
  O  O739  1  0.197871  0.374127  0.468761  1
  O  O740  1  0.197908  0.125838  0.468760  1
  O  O741  1  0.801981  0.125848  0.468760  1
  O  O742  1  0.807337  0.249990  0.462786  1
  O  O743  1  0.192534  0.249983  0.462789  1
  O  O744  1  0.089358  0.446957  0.478201  1
  O  O745  1  0.910427  0.446952  0.478202  1
  O  O746  1  0.910452  0.053032  0.478206  1
  O  O747  1  0.089382  0.053016  0.478201  1
  O  O748  1  0.798869  0.499992  0.467408  1
  O  O749  1  0.094835  0.448959  0.507232  1
  O  O750  1  0.905003  0.448918  0.507227  1
  O  O751  1  0.905004  0.051063  0.507228  1
  O  O752  1  0.094839  0.051005  0.507234  1
  O  O753  1  0.714494  0.444895  0.406877  1
  O  O754  1  0.285150  0.444761  0.406891  1
  O  O755  1  0.285334  0.055066  0.406881  1
  O  O756  1  0.714699  0.055172  0.406891  1
  O  O757  1  0.594451  0.439746  0.419116  1
  O  O758  1  0.405368  0.439734  0.419120  1
  O  O759  1  0.405418  0.060216  0.419117  1
  O  O760  1  0.594501  0.060216  0.419121  1
  O  O761  1  0.591974  0.346851  0.443473  1
  O  O762  1  0.407910  0.346836  0.443476  1
  O  O763  1  0.407892  0.153112  0.443475  1
  O  O764  1  0.591958  0.153140  0.443475  1
  O  O765  1  -0.000000  0.461495  0.492977  1
  O  O766  1  0.000000  0.038474  0.492979  1
  O  O767  1  0.499929  0.371846  0.430060  1
  O  O768  1  0.499933  0.128111  0.430061  1
  O  O769  1  0.499922  0.249982  0.436471  1
  O  O770  1  0.200967  0.499982  0.467413  1
  O  O771  1  0.249174  0.000000  0.421422  1
  O  O772  1  0.750784  0.000000  0.421429  1
  O  O773  1  0.750709  0.499532  0.421417  1
  O  O774  1  0.249092  0.499502  0.421429  1
  O  O775  1  -0.000000  0.500884  0.320206  1
  O  O776  1  -0.000000  0.000000  0.320209  1
  O  O777  1  0.499883  0.749981  0.387927  1
  O  O778  1  0.409999  0.845740  0.395267  1
  O  O779  1  0.590058  0.845745  0.395246  1
  O  O780  1  0.589814  0.654229  0.395265  1
  O  O781  1  0.409754  0.654172  0.395242  1
  O  O782  1  0.499663  0.873151  0.381700  1
  O  O783  1  0.500175  0.626830  0.381697  1
  O  O784  1  0.403885  0.558548  0.371037  1
  O  O785  1  0.596481  0.557568  0.371106  1
  O  O786  1  0.595945  0.941456  0.371041  1
  O  O787  1  0.403348  0.942409  0.371111  1
  O  O788  1  0.500030  0.858002  0.308509  1
  O  O789  1  0.499951  0.641911  0.308507  1
  O  O790  1  0.594064  0.842844  0.322418  1
  O  O791  1  0.405945  0.842785  0.322412  1
  O  O792  1  0.405895  0.657076  0.322417  1
  O  O793  1  0.594016  0.657116  0.322411  1
  O  O794  1  0.499964  0.948214  0.319863  1
  O  O795  1  0.499968  0.551695  0.319862  1
  O  O796  1  0.500008  0.948197  0.297305  1
  O  O797  1  0.500014  0.551723  0.297303  1
  O  O798  1  0.410152  0.841471  0.294156  1
  O  O799  1  0.589831  0.841473  0.294153  1
  O  O800  1  0.589842  0.658452  0.294154  1
  O  O801  1  0.410162  0.658444  0.294153  1
  O  O802  1  0.794758  0.553053  0.306357  1
  O  O803  1  0.205253  0.553024  0.306358  1
  O  O804  1  0.205216  0.946869  0.306358  1
  O  O805  1  0.794709  0.946883  0.306360  1
  O  O806  1  0.239984  0.847784  0.390507  1
  O  O807  1  0.760350  0.848337  0.390546  1
  O  O808  1  0.759829  0.652181  0.390504  1
  O  O809  1  0.239463  0.651620  0.390544  1
  O  O810  1  0.312250  0.949867  0.397886  1
  O  O811  1  0.687283  0.950075  0.397900  1
  O  O812  1  0.687580  0.550105  0.397884  1
  O  O813  1  0.312453  0.549877  0.397902  1
  O  O814  1  0.259642  0.949027  0.360510  1
  O  O815  1  0.740364  0.949027  0.360512  1
  O  O816  1  0.740195  0.550940  0.360505  1
  O  O817  1  0.259458  0.550878  0.360513  1
  O  O818  1  0.247988  0.998908  0.375359  1
  O  O819  1  0.254654  0.873188  0.374348  1
  O  O820  1  0.746292  0.874485  0.374429  1
  O  O821  1  0.745163  0.626795  0.374344  1
  O  O822  1  0.253517  0.625502  0.374424  1
  O  O823  1  0.284289  0.749935  0.324732  1
  O  O824  1  0.715656  0.749975  0.324731  1
  O  O825  1  0.247899  0.873632  0.329630  1
  O  O826  1  0.752103  0.873666  0.329642  1
  O  O827  1  0.752074  0.626272  0.329625  1
  O  O828  1  0.247860  0.626239  0.329642  1
  O  O829  1  0.255303  0.841544  0.313753  1
  O  O830  1  0.744702  0.841600  0.313761  1
  O  O831  1  0.744650  0.658387  0.313749  1
  O  O832  1  0.255259  0.658310  0.313760  1
  O  O833  1  0.238848  0.844616  0.297104  1
  O  O834  1  0.761111  0.844603  0.297109  1
  O  O835  1  0.761143  0.655299  0.297101  1
  O  O836  1  0.238877  0.655302  0.297108  1
  O  O837  1  0.307399  0.749956  0.287823  1
  O  O838  1  0.692596  0.749966  0.287822  1
  O  O839  1  0.701086  0.000000  0.283201  1
  O  O840  1  0.298986  0.000000  0.283200  1
  O  O841  1  0.095101  0.837191  0.380063  1
  O  O842  1  0.905434  0.837497  0.380096  1
  O  O843  1  0.904713  0.662777  0.380060  1
  O  O844  1  0.094381  0.662480  0.380093  1
  O  O845  1  0.225625  0.749529  0.379863  1
  O  O846  1  0.774193  0.750447  0.379863  1
  O  O847  1  0.090695  0.948859  0.355863  1
  O  O848  1  0.909270  0.949271  0.355883  1
  O  O849  1  0.909146  0.551114  0.355860  1
  O  O850  1  0.090577  0.550717  0.355879  1
  O  O851  1  0.214713  0.944746  0.343723  1
  O  O852  1  0.785389  0.944854  0.343732  1
  O  O853  1  0.785177  0.555180  0.343718  1
  O  O854  1  0.214526  0.555051  0.343731  1
  O  O855  1  0.094551  0.939701  0.331490  1
  O  O856  1  0.905470  0.939710  0.331495  1
  O  O857  1  0.905411  0.560197  0.331489  1
  O  O858  1  0.094493  0.560192  0.331492  1
  O  O859  1  0.092017  0.846809  0.307135  1
  O  O860  1  0.907952  0.846827  0.307136  1
  O  O861  1  0.907957  0.653111  0.307134  1
  O  O862  1  0.092023  0.653083  0.307135  1
  O  O863  1  -0.000000  0.749991  0.372186  1
  O  O864  1  0.000000  0.874929  0.366819  1
  O  O865  1  0.000000  0.625055  0.366816  1
  O  O866  1  -0.000000  0.871815  0.320550  1
  O  O867  1  0.000000  0.628084  0.320548  1
  O  O868  1  -0.000000  0.749953  0.314138  1
  O  O869  1  0.499328  0.500143  0.382354  1
  O  O870  1  0.500490  -0.000000  0.382358  1
  O  O871  1  0.751835  0.501075  0.375356  1
  O  O872  1  0.749130  0.500430  0.329181  1
  O  O873  1  0.250747  0.500401  0.329191  1
  O  O874  1  0.250829  0.000000  0.329185  1
  O  O875  1  0.749222  0.000000  0.329193  1
  O  O876  1  0.907501  0.455383  0.307718  1
  O  O877  1  0.092460  0.455399  0.307717  1
  O  O878  1  0.092469  0.044534  0.307720  1
  O  O879  1  0.907510  0.044495  0.307720  1
  O  O880  1  -0.000000  0.375981  0.317949  1
  O  O881  1  0.000000  0.123916  0.317952  1
  O  O882  1  0.092774  0.338270  0.331296  1
  O  O883  1  0.907199  0.338294  0.331290  1
  O  O884  1  0.907149  0.161640  0.331299  1
  O  O885  1  0.092728  0.161617  0.331292  1
  O  O886  1  0.000000  0.249949  0.323251  1
  O  O887  1  0.000000  0.249976  0.362682  1
  O  O888  1  0.909770  0.345773  0.355366  1
  O  O889  1  0.089827  0.345721  0.355343  1
  O  O890  1  0.090071  0.154177  0.355367  1
  O  O891  1  0.910012  0.154187  0.355346  1
  O  O892  1  -0.000000  0.373141  0.368911  1
  O  O893  1  -0.000000  0.126833  0.368914  1
  O  O894  1  0.903352  0.057592  0.379505  1
  O  O895  1  0.095944  0.058550  0.379575  1
  O  O896  1  0.096482  0.442407  0.379501  1
  O  O897  1  0.903889  0.441434  0.379570  1
  O  O898  1  0.760889  0.448810  0.297460  1
  O  O899  1  0.239134  0.448772  0.297466  1
  O  O900  1  0.239107  0.051120  0.297463  1
  O  O901  1  0.760856  0.051145  0.297468  1
  O  O902  1  0.745238  0.449374  0.314322  1
  O  O903  1  0.254651  0.449339  0.314331  1
  O  O904  1  0.254714  0.050539  0.314325  1
  O  O905  1  0.745308  0.050568  0.314333  1
  O  O906  1  0.786760  0.345526  0.343524  1
  O  O907  1  0.213210  0.345364  0.343538  1
  O  O908  1  0.213125  0.154420  0.343526  1
  O  O909  1  0.786668  0.154586  0.343540  1
  O  O910  1  0.739688  0.374566  0.327814  1
  O  O911  1  0.260277  0.374552  0.327828  1
  O  O912  1  0.260253  0.125339  0.327818  1
  O  O913  1  0.739655  0.125354  0.327830  1
  O  O914  1  0.779922  0.249978  0.332365  1
  O  O915  1  0.220001  0.249937  0.332365  1
  O  O916  1  0.739476  0.348340  0.360065  1
  O  O917  1  0.259838  0.347786  0.360104  1
  O  O918  1  0.260357  0.151615  0.360068  1
  O  O919  1  0.739996  0.152172  0.360107  1
  O  O920  1  0.812499  0.450081  0.352709  1
  O  O921  1  0.187561  0.449857  0.352726  1
  O  O922  1  0.187363  0.049870  0.352709  1
  O  O923  1  0.812195  0.050080  0.352725  1
  O  O924  1  0.759458  0.449077  0.390096  1
  O  O925  1  0.240184  0.449017  0.390103  1
  O  O926  1  0.240368  0.050901  0.390100  1
  O  O927  1  0.759624  0.050903  0.390102  1
  O  O928  1  0.748056  0.001092  0.375246  1
  O  O929  1  0.251851  0.498912  0.375256  1
  O  O930  1  0.753527  0.374479  0.376183  1
  O  O931  1  0.245172  0.373189  0.376264  1
  O  O932  1  0.246308  0.125503  0.376187  1
  O  O933  1  0.754655  0.126802  0.376268  1
  O  O934  1  0.302075  0.374099  0.284548  1
  O  O935  1  0.697999  0.374113  0.284544  1
  O  O936  1  0.698011  0.125813  0.284547  1
  O  O937  1  0.302079  0.125817  0.284549  1
  O  O938  1  0.589471  0.446926  0.293989  1
  O  O939  1  0.410541  0.446939  0.293989  1
  O  O940  1  0.410535  0.052988  0.293994  1
  O  O941  1  0.589463  0.052994  0.293989  1
  O  O942  1  0.594864  0.448907  0.323015  1
  O  O943  1  0.405031  0.448921  0.323019  1
  O  O944  1  0.405088  0.051008  0.323017  1
  O  O945  1  0.594923  0.050971  0.323022  1
  O  O946  1  0.594389  0.337499  0.370515  1
  O  O947  1  0.404721  0.337193  0.370548  1
  O  O948  1  0.405440  0.162483  0.370517  1
  O  O949  1  0.595109  0.162779  0.370550  1
  O  O950  1  0.725629  0.250447  0.370747  1
  O  O951  1  0.274194  0.249530  0.370748  1
  O  O952  1  0.590566  0.449265  0.394728  1
  O  O953  1  0.409136  0.448867  0.394749  1
  O  O954  1  0.409254  0.050721  0.394732  1
  O  O955  1  0.590687  0.051132  0.394751  1
  O  O956  1  0.499953  0.461472  0.308765  1
  O  O957  1  0.500048  0.038443  0.308768  1
  O  O958  1  0.499917  0.249994  0.378425  1
  O  O959  1  0.499794  0.374929  0.383793  1
  O  O960  1  0.500014  0.125063  0.383795  1
  O  O961  1  0.000000  0.000000  0.368258  1
  O  O962  1  0.000000  0.499835  0.368254  1
  O  O963  1  0.298946  0.499956  0.283200  1
  O  O964  1  0.407454  0.955436  0.811318  1
  O  O965  1  0.592412  0.955411  0.811316  1
  O  O966  1  0.592417  0.544527  0.811315  1
  O  O967  1  0.407457  0.544550  0.811315  1
  O  O968  1  0.499926  0.500913  0.872843  1
  O  O969  1  0.499898  0.000000  0.872842  1
  O  O970  1  0.499867  0.876010  0.801086  1
  O  O971  1  0.499978  0.623943  0.801084  1
  O  O972  1  0.592690  0.838319  0.787746  1
  O  O973  1  0.407115  0.838293  0.787738  1
  O  O974  1  0.407166  0.661642  0.787743  1
  O  O975  1  0.592740  0.661664  0.787737  1
  O  O976  1  0.499925  0.749976  0.795785  1
  O  O977  1  0.000000  0.858044  0.861144  1
  O  O978  1  0.000000  0.641935  0.861143  1
  O  O979  1  0.094001  0.842861  0.875055  1
  O  O980  1  0.905878  0.842830  0.875044  1
  O  O981  1  0.905901  0.657130  0.875046  1
  O  O982  1  0.094021  0.657107  0.875054  1
  O  O983  1  0.000000  0.948252  0.872500  1
  O  O984  1  -0.000000  0.551718  0.872498  1
  O  O985  1  -0.000000  0.948230  0.849940  1
  O  O986  1  0.000000  0.551745  0.849940  1
  O  O987  1  0.910048  0.841501  0.846794  1
  O  O988  1  0.089726  0.841501  0.846787  1
  O  O989  1  0.089745  0.658461  0.846787  1
  O  O990  1  0.910066  0.658479  0.846792  1
  O  O991  1  0.260798  0.948803  0.821570  1
  O  O992  1  0.739038  0.948845  0.821573  1
  O  O993  1  0.739086  0.551169  0.821565  1
  O  O994  1  0.260838  0.551137  0.821573  1
  O  O995  1  0.294639  0.553082  0.858996  1
  O  O996  1  0.705146  0.553046  0.858991  1
  O  O997  1  0.705155  0.946922  0.858995  1
  O  O998  1  0.294653  0.946891  0.858996  1
  O  O999  1  0.245250  0.949364  0.804705  1
  O  O1000  1  0.754667  0.949399  0.804712  1
  O  O1001  1  0.754610  0.550595  0.804700  1
  O  O1002  1  0.245201  0.550568  0.804711  1
  O  O1003  1  0.286644  0.845379  0.775497  1
  O  O1004  1  0.713094  0.845545  0.775511  1
  O  O1005  1  0.713182  0.654599  0.775494  1
  O  O1006  1  0.286738  0.654438  0.775508  1
  O  O1007  1  0.239620  0.874574  0.791209  1
  O  O1008  1  0.760212  0.874588  0.791220  1
  O  O1009  1  0.760246  0.625381  0.791204  1
  O  O1010  1  0.239652  0.625365  0.791218  1
  O  O1011  1  0.279888  0.749958  0.786670  1
  O  O1012  1  0.719963  0.749999  0.786669  1
  O  O1013  1  0.784245  0.749971  0.877359  1
  O  O1014  1  0.215606  0.749988  0.877374  1
  O  O1015  1  0.747807  0.873669  0.882257  1
  O  O1016  1  0.252027  0.873685  0.882280  1
  O  O1017  1  0.252051  0.626290  0.882280  1
  O  O1018  1  0.747842  0.626271  0.882261  1
  O  O1019  1  0.755251  0.841577  0.866382  1
  O  O1020  1  0.244637  0.841596  0.866399  1
  O  O1021  1  0.244659  0.658386  0.866399  1
  O  O1022  1  0.755265  0.658354  0.866384  1
  O  O1023  1  0.738734  0.844671  0.849734  1
  O  O1024  1  0.261003  0.844620  0.849747  1
  O  O1025  1  0.261023  0.655354  0.849746  1
  O  O1026  1  0.738760  0.655309  0.849736  1
  O  O1027  1  0.802004  0.874130  0.834484  1
  O  O1028  1  0.197909  0.874131  0.834489  1
  O  O1029  1  0.197917  0.625836  0.834489  1
  O  O1030  1  0.801993  0.625848  0.834484  1
  O  O1031  1  0.807318  0.749988  0.840458  1
  O  O1032  1  0.192503  0.749984  0.840459  1
  O  O1033  1  0.089398  0.946963  0.825047  1
  O  O1034  1  0.910469  0.946968  0.825041  1
  O  O1035  1  0.910486  0.553007  0.825044  1
  O  O1036  1  0.089415  0.553021  0.825042  1
  O  O1037  1  0.201004  0.000000  0.835837  1
  O  O1038  1  0.094877  0.948955  0.796015  1
  O  O1039  1  0.905044  0.948926  0.796019  1
  O  O1040  1  0.904995  0.551011  0.796013  1
  O  O1041  1  0.094829  0.551031  0.796018  1
  O  O1042  1  0.714769  0.944818  0.896347  1
  O  O1043  1  0.285432  0.944820  0.896372  1
  O  O1044  1  0.285434  0.555136  0.896371  1
  O  O1045  1  0.714803  0.555102  0.896350  1
  O  O1046  1  0.594463  0.939744  0.884123  1
  O  O1047  1  0.405381  0.939736  0.884128  1
  O  O1048  1  0.405393  0.560220  0.884128  1
  O  O1049  1  0.594475  0.560222  0.884126  1
  O  O1050  1  0.591932  0.846854  0.859769  1
  O  O1051  1  0.407866  0.846833  0.859771  1
  O  O1052  1  0.407887  0.653118  0.859771  1
  O  O1053  1  0.591952  0.653117  0.859769  1
  O  O1054  1  -0.000000  0.961504  0.810268  1
  O  O1055  1  -0.000000  0.538469  0.810267  1
  O  O1056  1  0.499907  0.871842  0.873184  1
  O  O1057  1  0.499929  0.628112  0.873185  1
  O  O1058  1  0.499928  0.749978  0.866773  1
  O  O1059  1  0.798917  0.000000  0.835836  1
  O  O1060  1  0.249113  0.500454  0.881831  1
  O  O1061  1  0.750724  0.500426  0.881811  1
  O  O1062  1  0.750744  0.000000  0.881811  1
  O  O1063  1  0.249121  0.000000  0.881833  1
  O  O1064  1  0.407418  0.455440  0.860355  1
  O  O1065  1  0.592375  0.455403  0.860352  1
  O  O1066  1  0.592383  0.044563  0.860354  1
  O  O1067  1  0.407421  0.044544  0.860355  1
  O  O1068  1  0.499926  0.000000  0.798828  1
  O  O1069  1  0.499926  0.499043  0.798826  1
  O  O1070  1  0.499881  0.376008  0.870584  1
  O  O1071  1  0.499896  0.123945  0.870588  1
  O  O1072  1  0.592678  0.338310  0.883928  1
  O  O1073  1  0.407103  0.338306  0.883929  1
  O  O1074  1  0.407100  0.161661  0.883932  1
  O  O1075  1  0.592674  0.161648  0.883933  1
  O  O1076  1  0.499894  0.249974  0.875887  1
  O  O1077  1  -0.000000  0.358029  0.810525  1
  O  O1078  1  0.000000  0.141944  0.810525  1
  O  O1079  1  0.093973  0.342818  0.796622  1
  O  O1080  1  0.905853  0.342866  0.796615  1
  O  O1081  1  0.905892  0.157146  0.796621  1
  O  O1082  1  0.094012  0.157100  0.796617  1
  O  O1083  1  0.000000  0.448243  0.799170  1
  O  O1084  1  0.000000  0.051723  0.799171  1
  O  O1085  1  0.000000  0.448221  0.821729  1
  O  O1086  1  0.000000  0.051756  0.821730  1
  O  O1087  1  0.910110  0.341502  0.824881  1
  O  O1088  1  0.089790  0.341491  0.824877  1
  O  O1089  1  0.089771  0.158479  0.824881  1
  O  O1090  1  0.910089  0.158476  0.824878  1
  O  O1091  1  0.260761  0.448818  0.850103  1
  O  O1092  1  0.739000  0.448812  0.850094  1
  O  O1093  1  0.739020  0.051158  0.850097  1
  O  O1094  1  0.260774  0.051158  0.850103  1
  O  O1095  1  0.294657  0.053055  0.812677  1
  O  O1096  1  0.705156  0.053083  0.812674  1
  O  O1097  1  0.705214  0.446909  0.812673  1
  O  O1098  1  0.294702  0.446890  0.812677  1
  O  O1099  1  0.245213  0.449421  0.866967  1
  O  O1100  1  0.754631  0.449339  0.866956  1
  O  O1101  1  0.754623  0.050645  0.866959  1
  O  O1102  1  0.245213  0.050547  0.866968  1
  O  O1103  1  0.286653  0.345486  0.896167  1
  O  O1104  1  0.713100  0.345463  0.896165  1
  O  O1105  1  0.713087  0.154554  0.896175  1
  O  O1106  1  0.286622  0.154503  0.896167  1
  O  O1107  1  0.239607  0.374601  0.880457  1
  O  O1108  1  0.760197  0.374562  0.880454  1
  O  O1109  1  0.760191  0.125383  0.880463  1
  O  O1110  1  0.239607  0.125373  0.880457  1
  O  O1111  1  0.279836  0.249988  0.885001  1
  O  O1112  1  0.719911  0.249974  0.885002  1
  O  O1113  1  0.784253  0.250001  0.794299  1
  O  O1114  1  0.215619  0.249962  0.794303  1
  O  O1115  1  0.747818  0.373696  0.789389  1
  O  O1116  1  0.252028  0.373661  0.789407  1
  O  O1117  1  0.252055  0.126265  0.789394  1
  O  O1118  1  0.747842  0.126293  0.789405  1
  O  O1119  1  0.755211  0.341626  0.805270  1
  O  O1120  1  0.244606  0.341559  0.805284  1
  O  O1121  1  0.244641  0.158336  0.805275  1
  O  O1122  1  0.755251  0.158415  0.805281  1
  O  O1123  1  0.738828  0.344627  0.821922  1
  O  O1124  1  0.261096  0.344641  0.821932  1
  O  O1125  1  0.261054  0.155336  0.821927  1
  O  O1126  1  0.738785  0.155330  0.821930  1
  O  O1127  1  0.801941  0.374136  0.837179  1
  O  O1128  1  0.197871  0.374127  0.837185  1
  O  O1129  1  0.197908  0.125838  0.837183  1
  O  O1130  1  0.801981  0.125848  0.837183  1
  O  O1131  1  0.807337  0.249990  0.831210  1
  O  O1132  1  0.192534  0.249983  0.831212  1
  O  O1133  1  0.089358  0.446957  0.846625  1
  O  O1134  1  0.910427  0.446952  0.846626  1
  O  O1135  1  0.910452  0.053032  0.846630  1
  O  O1136  1  0.089382  0.053016  0.846625  1
  O  O1137  1  0.798869  0.499992  0.835832  1
  O  O1138  1  0.094835  0.448959  0.875656  1
  O  O1139  1  0.905003  0.448918  0.875650  1
  O  O1140  1  0.905004  0.051063  0.875651  1
  O  O1141  1  0.094839  0.051005  0.875658  1
  O  O1142  1  0.714494  0.444895  0.775300  1
  O  O1143  1  0.285150  0.444761  0.775314  1
  O  O1144  1  0.285334  0.055066  0.775304  1
  O  O1145  1  0.714699  0.055172  0.775314  1
  O  O1146  1  0.594451  0.439746  0.787539  1
  O  O1147  1  0.405368  0.439734  0.787543  1
  O  O1148  1  0.405418  0.060216  0.787541  1
  O  O1149  1  0.594501  0.060216  0.787545  1
  O  O1150  1  0.591974  0.346851  0.811896  1
  O  O1151  1  0.407910  0.346836  0.811899  1
  O  O1152  1  0.407892  0.153112  0.811898  1
  O  O1153  1  0.591958  0.153140  0.811899  1
  O  O1154  1  0.000000  0.461495  0.861401  1
  O  O1155  1  0.000000  0.038474  0.861403  1
  O  O1156  1  0.499929  0.371846  0.798483  1
  O  O1157  1  0.499933  0.128111  0.798484  1
  O  O1158  1  0.499922  0.249982  0.804894  1
  O  O1159  1  0.200967  0.499982  0.835836  1
  O  O1160  1  0.249174  0.000000  0.789845  1
  O  O1161  1  0.750784  0.000000  0.789852  1
  O  O1162  1  0.750709  0.499532  0.789840  1
  O  O1163  1  0.249092  0.499502  0.789852  1
  O  O1164  1  0.000000  0.500884  0.688630  1
  O  O1165  1  0.000000  0.000000  0.688632  1
  O  O1166  1  0.499883  0.749981  0.756351  1
  O  O1167  1  0.409999  0.845740  0.763691  1
  O  O1168  1  0.590058  0.845745  0.763669  1
  O  O1169  1  0.589814  0.654229  0.763689  1
  O  O1170  1  0.409754  0.654172  0.763666  1
  O  O1171  1  0.499663  0.873151  0.750124  1
  O  O1172  1  0.500175  0.626830  0.750120  1
  O  O1173  1  0.403885  0.558548  0.739460  1
  O  O1174  1  0.596481  0.557568  0.739530  1
  O  O1175  1  0.595945  0.941456  0.739465  1
  O  O1176  1  0.403348  0.942409  0.739535  1
  O  O1177  1  0.500030  0.858002  0.676932  1
  O  O1178  1  0.499951  0.641911  0.676931  1
  O  O1179  1  0.594064  0.842844  0.690841  1
  O  O1180  1  0.405945  0.842785  0.690836  1
  O  O1181  1  0.405895  0.657076  0.690840  1
  O  O1182  1  0.594016  0.657116  0.690834  1
  O  O1183  1  0.499964  0.948214  0.688287  1
  O  O1184  1  0.499968  0.551695  0.688286  1
  O  O1185  1  0.500008  0.948197  0.665729  1
  O  O1186  1  0.500014  0.551723  0.665727  1
  O  O1187  1  0.410152  0.841471  0.662580  1
  O  O1188  1  0.589831  0.841473  0.662576  1
  O  O1189  1  0.589842  0.658452  0.662578  1
  O  O1190  1  0.410162  0.658444  0.662576  1
  O  O1191  1  0.794758  0.553053  0.674781  1
  O  O1192  1  0.205253  0.553024  0.674782  1
  O  O1193  1  0.205216  0.946869  0.674782  1
  O  O1194  1  0.794709  0.946883  0.674783  1
  O  O1195  1  0.239984  0.847784  0.758931  1
  O  O1196  1  0.760350  0.848337  0.758970  1
  O  O1197  1  0.759829  0.652181  0.758928  1
  O  O1198  1  0.239463  0.651620  0.758967  1
  O  O1199  1  0.312250  0.949867  0.766309  1
  O  O1200  1  0.687283  0.950075  0.766323  1
  O  O1201  1  0.687580  0.550105  0.766307  1
  O  O1202  1  0.312453  0.549877  0.766326  1
  O  O1203  1  0.259642  0.949027  0.728933  1
  O  O1204  1  0.740364  0.949027  0.728936  1
  O  O1205  1  0.740195  0.550940  0.728929  1
  O  O1206  1  0.259458  0.550878  0.728936  1
  O  O1207  1  0.247988  0.998908  0.743782  1
  O  O1208  1  0.254654  0.873188  0.742772  1
  O  O1209  1  0.746292  0.874485  0.742853  1
  O  O1210  1  0.745163  0.626795  0.742767  1
  O  O1211  1  0.253517  0.625502  0.742847  1
  O  O1212  1  0.284289  0.749935  0.693155  1
  O  O1213  1  0.715656  0.749975  0.693155  1
  O  O1214  1  0.247899  0.873632  0.698054  1
  O  O1215  1  0.752103  0.873666  0.698066  1
  O  O1216  1  0.752074  0.626272  0.698049  1
  O  O1217  1  0.247860  0.626239  0.698065  1
  O  O1218  1  0.255303  0.841544  0.682177  1
  O  O1219  1  0.744702  0.841600  0.682184  1
  O  O1220  1  0.744650  0.658387  0.682173  1
  O  O1221  1  0.255259  0.658310  0.682184  1
  O  O1222  1  0.238848  0.844616  0.665528  1
  O  O1223  1  0.761111  0.844603  0.665533  1
  O  O1224  1  0.761143  0.655299  0.665525  1
  O  O1225  1  0.238877  0.655302  0.665532  1
  O  O1226  1  0.307399  0.749956  0.656247  1
  O  O1227  1  0.692596  0.749966  0.656245  1
  O  O1228  1  0.701086  0.000000  0.651625  1
  O  O1229  1  0.298986  0.000000  0.651624  1
  O  O1230  1  0.095101  0.837191  0.748487  1
  O  O1231  1  0.905434  0.837497  0.748519  1
  O  O1232  1  0.904713  0.662777  0.748484  1
  O  O1233  1  0.094381  0.662480  0.748517  1
  O  O1234  1  0.225625  0.749529  0.748287  1
  O  O1235  1  0.774193  0.750447  0.748286  1
  O  O1236  1  0.090695  0.948859  0.724287  1
  O  O1237  1  0.909270  0.949271  0.724307  1
  O  O1238  1  0.909146  0.551114  0.724284  1
  O  O1239  1  0.090577  0.550717  0.724303  1
  O  O1240  1  0.214713  0.944746  0.712146  1
  O  O1241  1  0.785389  0.944854  0.712156  1
  O  O1242  1  0.785177  0.555180  0.712142  1
  O  O1243  1  0.214526  0.555051  0.712155  1
  O  O1244  1  0.094551  0.939701  0.699914  1
  O  O1245  1  0.905470  0.939710  0.699918  1
  O  O1246  1  0.905411  0.560197  0.699912  1
  O  O1247  1  0.094493  0.560192  0.699915  1
  O  O1248  1  0.092017  0.846809  0.675559  1
  O  O1249  1  0.907952  0.846827  0.675560  1
  O  O1250  1  0.907957  0.653111  0.675557  1
  O  O1251  1  0.092023  0.653083  0.675558  1
  O  O1252  1  0.000000  0.749991  0.740610  1
  O  O1253  1  -0.000000  0.874929  0.735243  1
  O  O1254  1  0.000000  0.625055  0.735240  1
  O  O1255  1  -0.000000  0.871815  0.688974  1
  O  O1256  1  0.000000  0.628084  0.688972  1
  O  O1257  1  0.000000  0.749953  0.682562  1
  O  O1258  1  0.499328  0.500143  0.750777  1
  O  O1259  1  0.500490  0.000000  0.750781  1
  O  O1260  1  0.751835  0.501075  0.743779  1
  O  O1261  1  0.749130  0.500430  0.697604  1
  O  O1262  1  0.250747  0.500401  0.697615  1
  O  O1263  1  0.250829  0.000000  0.697608  1
  O  O1264  1  0.749222  0.000000  0.697616  1
  O  O1265  1  0.907501  0.455383  0.676142  1
  O  O1266  1  0.092460  0.455399  0.676141  1
  O  O1267  1  0.092469  0.044534  0.676144  1
  O  O1268  1  0.907510  0.044495  0.676143  1
  O  O1269  1  0.000000  0.375981  0.686372  1
  O  O1270  1  0.000000  0.123916  0.686375  1
  O  O1271  1  0.092774  0.338270  0.699720  1
  O  O1272  1  0.907199  0.338294  0.699714  1
  O  O1273  1  0.907149  0.161640  0.699723  1
  O  O1274  1  0.092728  0.161617  0.699715  1
  O  O1275  1  -0.000000  0.249949  0.691674  1
  O  O1276  1  -0.000000  0.249976  0.731105  1
  O  O1277  1  0.909770  0.345773  0.723790  1
  O  O1278  1  0.089827  0.345721  0.723766  1
  O  O1279  1  0.090071  0.154177  0.723791  1
  O  O1280  1  0.910012  0.154187  0.723769  1
  O  O1281  1  -0.000000  0.373141  0.737334  1
  O  O1282  1  -0.000000  0.126833  0.737337  1
  O  O1283  1  0.903352  0.057592  0.747929  1
  O  O1284  1  0.095944  0.058550  0.747998  1
  O  O1285  1  0.096482  0.442407  0.747924  1
  O  O1286  1  0.903889  0.441434  0.747994  1
  O  O1287  1  0.760889  0.448810  0.665883  1
  O  O1288  1  0.239134  0.448772  0.665889  1
  O  O1289  1  0.239107  0.051120  0.665887  1
  O  O1290  1  0.760856  0.051145  0.665891  1
  O  O1291  1  0.745238  0.449374  0.682745  1
  O  O1292  1  0.254651  0.449339  0.682755  1
  O  O1293  1  0.254714  0.050539  0.682749  1
  O  O1294  1  0.745308  0.050568  0.682757  1
  O  O1295  1  0.786760  0.345526  0.711947  1
  O  O1296  1  0.213210  0.345364  0.711961  1
  O  O1297  1  0.213125  0.154420  0.711950  1
  O  O1298  1  0.786668  0.154586  0.711964  1
  O  O1299  1  0.739688  0.374566  0.696237  1
  O  O1300  1  0.260277  0.374552  0.696251  1
  O  O1301  1  0.260253  0.125339  0.696241  1
  O  O1302  1  0.739655  0.125354  0.696253  1
  O  O1303  1  0.779922  0.249978  0.700789  1
  O  O1304  1  0.220001  0.249937  0.700789  1
  O  O1305  1  0.739476  0.348340  0.728489  1
  O  O1306  1  0.259838  0.347786  0.728528  1
  O  O1307  1  0.260357  0.151615  0.728491  1
  O  O1308  1  0.739996  0.152172  0.728530  1
  O  O1309  1  0.812499  0.450081  0.721133  1
  O  O1310  1  0.187561  0.449857  0.721149  1
  O  O1311  1  0.187363  0.049870  0.721133  1
  O  O1312  1  0.812195  0.050080  0.721148  1
  O  O1313  1  0.759458  0.449077  0.758519  1
  O  O1314  1  0.240184  0.449017  0.758527  1
  O  O1315  1  0.240368  0.050901  0.758524  1
  O  O1316  1  0.759624  0.050903  0.758526  1
  O  O1317  1  0.748056  0.001092  0.743669  1
  O  O1318  1  0.251851  0.498912  0.743680  1
  O  O1319  1  0.753527  0.374479  0.744607  1
  O  O1320  1  0.245172  0.373189  0.744687  1
  O  O1321  1  0.246308  0.125503  0.744611  1
  O  O1322  1  0.754655  0.126802  0.744692  1
  O  O1323  1  0.302075  0.374099  0.652971  1
  O  O1324  1  0.697999  0.374113  0.652968  1
  O  O1325  1  0.698011  0.125813  0.652970  1
  O  O1326  1  0.302079  0.125817  0.652972  1
  O  O1327  1  0.589471  0.446926  0.662413  1
  O  O1328  1  0.410541  0.446939  0.662412  1
  O  O1329  1  0.410535  0.052988  0.662418  1
  O  O1330  1  0.589463  0.052994  0.662412  1
  O  O1331  1  0.594864  0.448907  0.691438  1
  O  O1332  1  0.405031  0.448921  0.691442  1
  O  O1333  1  0.405088  0.051008  0.691441  1
  O  O1334  1  0.594923  0.050971  0.691445  1
  O  O1335  1  0.594389  0.337499  0.738939  1
  O  O1336  1  0.404721  0.337193  0.738971  1
  O  O1337  1  0.405440  0.162483  0.738941  1
  O  O1338  1  0.595109  0.162779  0.738974  1
  O  O1339  1  0.725629  0.250447  0.739171  1
  O  O1340  1  0.274194  0.249530  0.739171  1
  O  O1341  1  0.590566  0.449265  0.763152  1
  O  O1342  1  0.409136  0.448867  0.763172  1
  O  O1343  1  0.409254  0.050721  0.763156  1
  O  O1344  1  0.590687  0.051132  0.763174  1
  O  O1345  1  0.499953  0.461472  0.677188  1
  O  O1346  1  0.500048  0.038443  0.677191  1
  O  O1347  1  0.499917  0.249994  0.746848  1
  O  O1348  1  0.499794  0.374929  0.752216  1
  O  O1349  1  0.500014  0.125063  0.752219  1
  O  O1350  1  -0.000000  0.000000  0.736682  1
  O  O1351  1  0.000000  0.499835  0.736678  1
  O  O1352  1  0.298946  0.499956  0.651623  1
  Si  Si1353  1  0.500087  0.673681  0.190655  1
  Si  Si1354  1  0.500046  0.826355  0.190655  1
  Si  Si1355  1  0.500039  0.525615  0.247525  1
  Si  Si1356  1  0.500026  0.974307  0.247527  1
  Si  Si1357  1  0.500008  0.525412  0.267725  1
  Si  Si1358  1  0.500028  0.974508  0.267727  1
  Si  Si1359  1  0.802167  0.975342  0.260119  1
  Si  Si1360  1  0.197875  0.975307  0.260120  1
  Si  Si1361  1  0.197883  0.524621  0.260118  1
  Si  Si1362  1  0.802168  0.524585  0.260116  1
  Si  Si1363  1  0.810074  0.872213  0.213541  1
  Si  Si1364  1  0.189929  0.872257  0.213533  1
  Si  Si1365  1  0.189981  0.627704  0.213532  1
  Si  Si1366  1  0.810051  0.627723  0.213534  1
  Si  Si1367  1  0.793014  0.940050  0.185991  1
  Si  Si1368  1  0.206532  0.939841  0.185981  1
  Si  Si1369  1  0.206607  0.560135  0.185982  1
  Si  Si1370  1  0.793066  0.560004  0.185990  1
  Si  Si1371  1  0.689248  0.941046  0.276612  1
  Si  Si1372  1  0.310808  0.941039  0.276612  1
  Si  Si1373  1  0.310794  0.558879  0.276612  1
  Si  Si1374  1  0.689231  0.558888  0.276608  1
  Si  Si1375  1  0.691459  0.972165  0.168839  1
  Si  Si1376  1  0.308764  0.972214  0.168862  1
  Si  Si1377  1  0.308805  0.527758  0.168861  1
  Si  Si1378  1  0.691435  0.527778  0.168842  1
  Si  Si1379  1  0.705204  0.942313  0.242625  1
  Si  Si1380  1  0.294856  0.942241  0.242629  1
  Si  Si1381  1  0.294870  0.557687  0.242627  1
  Si  Si1382  1  0.705217  0.557611  0.242621  1
  Si  Si1383  1  0.704625  0.826961  0.196999  1
  Si  Si1384  1  0.295524  0.826933  0.197006  1
  Si  Si1385  1  0.295564  0.673063  0.197005  1
  Si  Si1386  1  0.704707  0.673118  0.196990  1
  Si  Si1387  1  0.800351  0.826684  0.232720  1
  Si  Si1388  1  0.199615  0.826693  0.232712  1
  Si  Si1389  1  0.199625  0.673242  0.232712  1
  Si  Si1390  1  0.800359  0.673236  0.232714  1
  Si  Si1391  1  -0.000000  0.945059  0.253300  1
  Si  Si1392  1  0.000000  0.554866  0.253298  1
  Si  Si1393  1  -0.000000  0.561477  0.191886  1
  Si  Si1394  1  0.000000  0.938499  0.191891  1
  Si  Si1395  1  0.500197  0.558100  0.177306  1
  Si  Si1396  1  0.500196  0.941933  0.177306  1
  Si  Si1397  1  -0.000000  0.827110  0.205723  1
  Si  Si1398  1  0.000000  0.672817  0.205724  1
  Si  Si1399  1  0.000000  0.826382  0.240532  1
  Si  Si1400  1  -0.000000  0.673532  0.240529  1
  Si  Si1401  1  0.000000  0.173673  0.191534  1
  Si  Si1402  1  -0.000000  0.326344  0.191533  1
  Si  Si1403  1  0.500034  0.128947  0.267934  1
  Si  Si1404  1  0.310033  0.372248  0.168652  1
  Si  Si1405  1  0.689895  0.372255  0.168652  1
  Si  Si1406  1  0.689918  0.127698  0.168659  1
  Si  Si1407  1  0.309982  0.127725  0.168652  1
  Si  Si1408  1  0.293071  0.440020  0.196195  1
  Si  Si1409  1  0.706589  0.439898  0.196203  1
  Si  Si1410  1  0.706538  0.060155  0.196205  1
  Si  Si1411  1  0.293000  0.059954  0.196194  1
  Si  Si1412  1  0.191464  0.472176  0.213344  1
  Si  Si1413  1  0.808775  0.472213  0.213326  1
  Si  Si1414  1  0.808784  0.027712  0.213323  1
  Si  Si1415  1  0.191419  0.027786  0.213344  1
  Si  Si1416  1  0.202689  0.438159  0.232816  1
  Si  Si1417  1  0.797443  0.438146  0.232800  1
  Si  Si1418  1  0.797420  0.061758  0.232799  1
  Si  Si1419  1  0.202670  0.061766  0.232817  1
  Si  Si1420  1  0.196836  0.369390  0.260457  1
  Si  Si1421  1  0.803248  0.369358  0.260452  1
  Si  Si1422  1  0.803238  0.130567  0.260453  1
  Si  Si1423  1  0.196825  0.130536  0.260457  1
  Si  Si1424  1  0.298127  0.326532  0.243454  1
  Si  Si1425  1  0.702033  0.326527  0.243444  1
  Si  Si1426  1  0.702023  0.173377  0.243443  1
  Si  Si1427  1  0.298117  0.173391  0.243454  1
  Si  Si1428  1  0.312624  0.326509  0.276490  1
  Si  Si1429  1  0.687453  0.326509  0.276487  1
  Si  Si1430  1  0.687449  0.173411  0.276489  1
  Si  Si1431  1  0.312617  0.173407  0.276490  1
  Si  Si1432  1  0.204651  0.326917  0.185194  1
  Si  Si1433  1  0.795542  0.326972  0.185177  1
  Si  Si1434  1  0.795468  0.173102  0.185187  1
  Si  Si1435  1  0.204613  0.173077  0.185195  1
  Si  Si1436  1  0.499819  0.061463  0.190298  1
  Si  Si1437  1  0.499874  0.438531  0.190293  1
  Si  Si1438  1  -0.000000  0.058066  0.204878  1
  Si  Si1439  1  0.000000  0.441942  0.204878  1
  Si  Si1440  1  0.000000  0.436538  0.240129  1
  Si  Si1441  1  0.000000  0.063379  0.240129  1
  Si  Si1442  1  0.000000  0.327085  0.254231  1
  Si  Si1443  1  -0.000000  0.172832  0.254231  1
  Si  Si1444  1  0.499934  0.327119  0.176464  1
  Si  Si1445  1  0.499905  0.172823  0.176464  1
  Si  Si1446  1  0.500091  0.371161  0.247817  1
  Si  Si1447  1  0.500079  0.128761  0.247818  1
  Si  Si1448  1  0.500037  0.370974  0.267933  1
  Si  Si1449  1  0.000000  0.525639  0.063315  1
  Si  Si1450  1  -0.000000  0.974327  0.063316  1
  Si  Si1451  1  0.000000  0.525439  0.083514  1
  Si  Si1452  1  0.000000  0.974538  0.083515  1
  Si  Si1453  1  0.000000  0.628966  0.114253  1
  Si  Si1454  1  0.302065  0.975330  0.075907  1
  Si  Si1455  1  0.697773  0.975356  0.075909  1
  Si  Si1456  1  0.697807  0.524634  0.075903  1
  Si  Si1457  1  0.302092  0.524617  0.075909  1
  Si  Si1458  1  0.189160  0.941062  0.092402  1
  Si  Si1459  1  0.810728  0.941074  0.092400  1
  Si  Si1460  1  0.810720  0.558913  0.092397  1
  Si  Si1461  1  0.189159  0.558905  0.092401  1
  Si  Si1462  1  0.702567  0.938171  0.149366  1
  Si  Si1463  1  0.297321  0.938180  0.149387  1
  Si  Si1464  1  0.297331  0.561787  0.149386  1
  Si  Si1465  1  0.702581  0.561773  0.149369  1
  Si  Si1466  1  0.696685  0.869419  0.121727  1
  Si  Si1467  1  0.303100  0.869389  0.121736  1
  Si  Si1468  1  0.303112  0.630583  0.121735  1
  Si  Si1469  1  0.696702  0.630549  0.121727  1
  Si  Si1470  1  0.797988  0.826540  0.138728  1
  Si  Si1471  1  0.201890  0.826563  0.138745  1
  Si  Si1472  1  0.201907  0.673412  0.138744  1
  Si  Si1473  1  0.798002  0.673400  0.138730  1
  Si  Si1474  1  0.812501  0.826539  0.105696  1
  Si  Si1475  1  0.187322  0.826533  0.105699  1
  Si  Si1476  1  0.187336  0.673433  0.105699  1
  Si  Si1477  1  0.812509  0.673436  0.105696  1
  Si  Si1478  1  0.205131  0.942284  0.058412  1
  Si  Si1479  1  0.794783  0.942292  0.058420  1
  Si  Si1480  1  0.794742  0.557674  0.058408  1
  Si  Si1481  1  0.205091  0.557665  0.058419  1
  Si  Si1482  1  0.300274  0.826682  0.048499  1
  Si  Si1483  1  0.699534  0.826728  0.048509  1
  Si  Si1484  1  0.699576  0.673278  0.048497  1
  Si  Si1485  1  0.300318  0.673232  0.048507  1
  Si  Si1486  1  0.499923  0.945073  0.069089  1
  Si  Si1487  1  0.499937  0.554883  0.069087  1
  Si  Si1488  1  0.499902  0.936557  0.142056  1
  Si  Si1489  1  0.499923  0.563399  0.142057  1
  Si  Si1490  1  0.499913  0.827105  0.127954  1
  Si  Si1491  1  0.499928  0.672851  0.127954  1
  Si  Si1492  1  0.499883  0.826403  0.056320  1
  Si  Si1493  1  0.499967  0.673553  0.056319  1
  Si  Si1494  1  0.000000  0.871196  0.134370  1
  Si  Si1495  1  -0.000000  0.628776  0.134369  1
  Si  Si1496  1  0.000000  0.871010  0.114254  1
  Si  Si1497  1  -0.000000  0.025649  0.134662  1
  Si  Si1498  1  0.000000  0.474322  0.134660  1
  Si  Si1499  1  -0.000000  0.025448  0.114462  1
  Si  Si1500  1  0.000000  0.474527  0.114460  1
  Si  Si1501  1  0.000000  0.128976  0.083722  1
  Si  Si1502  1  0.302040  0.475358  0.122070  1
  Si  Si1503  1  0.697748  0.475318  0.122064  1
  Si  Si1504  1  0.697759  0.024651  0.122067  1
  Si  Si1505  1  0.302046  0.024616  0.122071  1
  Si  Si1506  1  0.189126  0.441061  0.105577  1
  Si  Si1507  1  0.810686  0.441065  0.105572  1
  Si  Si1508  1  0.810712  0.058917  0.105576  1
  Si  Si1509  1  0.189150  0.058910  0.105577  1
  Si  Si1510  1  0.702521  0.438198  0.048589  1
  Si  Si1511  1  0.297274  0.438155  0.048603  1
  Si  Si1512  1  0.297341  0.061763  0.048593  1
  Si  Si1513  1  0.702591  0.061794  0.048603  1
  Si  Si1514  1  0.696738  0.369408  0.076239  1
  Si  Si1515  1  0.303151  0.369387  0.076246  1
  Si  Si1516  1  0.303131  0.130556  0.076243  1
  Si  Si1517  1  0.696718  0.130587  0.076244  1
  Si  Si1518  1  0.797961  0.326583  0.059231  1
  Si  Si1519  1  0.201865  0.326526  0.059243  1
  Si  Si1520  1  0.201906  0.173380  0.059235  1
  Si  Si1521  1  0.798000  0.173438  0.059241  1
  Si  Si1522  1  0.812517  0.326537  0.092274  1
  Si  Si1523  1  0.187348  0.326533  0.092279  1
  Si  Si1524  1  0.187353  0.173434  0.092278  1
  Si  Si1525  1  0.812521  0.173438  0.092278  1
  Si  Si1526  1  0.205092  0.442325  0.139565  1
  Si  Si1527  1  0.794745  0.442251  0.139555  1
  Si  Si1528  1  0.794745  0.057717  0.139558  1
  Si  Si1529  1  0.205096  0.057646  0.139566  1
  Si  Si1530  1  0.300256  0.326712  0.149473  1
  Si  Si1531  1  0.699517  0.326703  0.149472  1
  Si  Si1532  1  0.699509  0.173252  0.149479  1
  Si  Si1533  1  0.300250  0.173263  0.149473  1
  Si  Si1534  1  0.499900  0.445072  0.128887  1
  Si  Si1535  1  0.499903  0.054896  0.128888  1
  Si  Si1536  1  0.499924  0.436560  0.055917  1
  Si  Si1537  1  0.499944  0.063396  0.055919  1
  Si  Si1538  1  0.499936  0.327109  0.070020  1
  Si  Si1539  1  0.499921  0.172855  0.070020  1
  Si  Si1540  1  0.499887  0.326402  0.141656  1
  Si  Si1541  1  0.499895  0.173552  0.141659  1
  Si  Si1542  1  -0.000000  0.371186  0.063605  1
  Si  Si1543  1  0.000000  0.128781  0.063606  1
  Si  Si1544  1  -0.000000  0.371001  0.083722  1
  Si  Si1545  1  0.500087  0.673681  0.559079  1
  Si  Si1546  1  0.500046  0.826355  0.559078  1
  Si  Si1547  1  0.500039  0.525615  0.615949  1
  Si  Si1548  1  0.500026  0.974307  0.615951  1
  Si  Si1549  1  0.500008  0.525412  0.636148  1
  Si  Si1550  1  0.500028  0.974508  0.636150  1
  Si  Si1551  1  0.802167  0.975342  0.628543  1
  Si  Si1552  1  0.197875  0.975307  0.628543  1
  Si  Si1553  1  0.197883  0.524621  0.628541  1
  Si  Si1554  1  0.802168  0.524585  0.628540  1
  Si  Si1555  1  0.810074  0.872213  0.581965  1
  Si  Si1556  1  0.189929  0.872257  0.581956  1
  Si  Si1557  1  0.189981  0.627704  0.581955  1
  Si  Si1558  1  0.810051  0.627723  0.581957  1
  Si  Si1559  1  0.793014  0.940050  0.554414  1
  Si  Si1560  1  0.206532  0.939841  0.554405  1
  Si  Si1561  1  0.206607  0.560135  0.554405  1
  Si  Si1562  1  0.793066  0.560004  0.554413  1
  Si  Si1563  1  0.689248  0.941046  0.645036  1
  Si  Si1564  1  0.310808  0.941039  0.645036  1
  Si  Si1565  1  0.310794  0.558879  0.645036  1
  Si  Si1566  1  0.689231  0.558888  0.645032  1
  Si  Si1567  1  0.691459  0.972165  0.537262  1
  Si  Si1568  1  0.308764  0.972214  0.537286  1
  Si  Si1569  1  0.308805  0.527758  0.537285  1
  Si  Si1570  1  0.691435  0.527778  0.537266  1
  Si  Si1571  1  0.705204  0.942313  0.611048  1
  Si  Si1572  1  0.294856  0.942241  0.611052  1
  Si  Si1573  1  0.294870  0.557687  0.611051  1
  Si  Si1574  1  0.705217  0.557611  0.611045  1
  Si  Si1575  1  0.704625  0.826961  0.565423  1
  Si  Si1576  1  0.295524  0.826933  0.565429  1
  Si  Si1577  1  0.295564  0.673063  0.565429  1
  Si  Si1578  1  0.704707  0.673118  0.565414  1
  Si  Si1579  1  0.800351  0.826684  0.601144  1
  Si  Si1580  1  0.199615  0.826693  0.601135  1
  Si  Si1581  1  0.199625  0.673242  0.601135  1
  Si  Si1582  1  0.800359  0.673236  0.601137  1
  Si  Si1583  1  0.000000  0.945059  0.621723  1
  Si  Si1584  1  -0.000000  0.554866  0.621722  1
  Si  Si1585  1  -0.000000  0.561477  0.560310  1
  Si  Si1586  1  -0.000000  0.938499  0.560314  1
  Si  Si1587  1  0.500197  0.558100  0.545730  1
  Si  Si1588  1  0.500196  0.941933  0.545729  1
  Si  Si1589  1  -0.000000  0.827110  0.574146  1
  Si  Si1590  1  -0.000000  0.672817  0.574147  1
  Si  Si1591  1  -0.000000  0.826382  0.608956  1
  Si  Si1592  1  0.000000  0.673532  0.608952  1
  Si  Si1593  1  0.000000  0.173673  0.559958  1
  Si  Si1594  1  0.000000  0.326344  0.559957  1
  Si  Si1595  1  0.500034  0.128947  0.636357  1
  Si  Si1596  1  0.310033  0.372248  0.537075  1
  Si  Si1597  1  0.689895  0.372255  0.537075  1
  Si  Si1598  1  0.689918  0.127698  0.537083  1
  Si  Si1599  1  0.309982  0.127725  0.537076  1
  Si  Si1600  1  0.293071  0.440020  0.564618  1
  Si  Si1601  1  0.706589  0.439898  0.564627  1
  Si  Si1602  1  0.706538  0.060155  0.564628  1
  Si  Si1603  1  0.293000  0.059954  0.564617  1
  Si  Si1604  1  0.191464  0.472176  0.581767  1
  Si  Si1605  1  0.808775  0.472213  0.581749  1
  Si  Si1606  1  0.808784  0.027712  0.581747  1
  Si  Si1607  1  0.191419  0.027786  0.581768  1
  Si  Si1608  1  0.202689  0.438159  0.601239  1
  Si  Si1609  1  0.797443  0.438146  0.601224  1
  Si  Si1610  1  0.797420  0.061758  0.601222  1
  Si  Si1611  1  0.202670  0.061766  0.601240  1
  Si  Si1612  1  0.196836  0.369390  0.628880  1
  Si  Si1613  1  0.803248  0.369358  0.628876  1
  Si  Si1614  1  0.803238  0.130567  0.628876  1
  Si  Si1615  1  0.196825  0.130536  0.628881  1
  Si  Si1616  1  0.298127  0.326532  0.611877  1
  Si  Si1617  1  0.702033  0.326527  0.611867  1
  Si  Si1618  1  0.702023  0.173377  0.611867  1
  Si  Si1619  1  0.298117  0.173391  0.611878  1
  Si  Si1620  1  0.312624  0.326509  0.644913  1
  Si  Si1621  1  0.687453  0.326509  0.644911  1
  Si  Si1622  1  0.687449  0.173411  0.644912  1
  Si  Si1623  1  0.312617  0.173407  0.644914  1
  Si  Si1624  1  0.204651  0.326917  0.553618  1
  Si  Si1625  1  0.795542  0.326972  0.553601  1
  Si  Si1626  1  0.795468  0.173102  0.553611  1
  Si  Si1627  1  0.204613  0.173077  0.553618  1
  Si  Si1628  1  0.499819  0.061463  0.558722  1
  Si  Si1629  1  0.499874  0.438531  0.558716  1
  Si  Si1630  1  -0.000000  0.058066  0.573302  1
  Si  Si1631  1  0.000000  0.441942  0.573302  1
  Si  Si1632  1  0.000000  0.436538  0.608553  1
  Si  Si1633  1  -0.000000  0.063379  0.608553  1
  Si  Si1634  1  -0.000000  0.327085  0.622655  1
  Si  Si1635  1  0.000000  0.172832  0.622654  1
  Si  Si1636  1  0.499934  0.327119  0.544887  1
  Si  Si1637  1  0.499905  0.172823  0.544887  1
  Si  Si1638  1  0.500091  0.371161  0.616240  1
  Si  Si1639  1  0.500079  0.128761  0.616241  1
  Si  Si1640  1  0.500037  0.370974  0.636356  1
  Si  Si1641  1  -0.000000  0.525639  0.431738  1
  Si  Si1642  1  -0.000000  0.974327  0.431739  1
  Si  Si1643  1  -0.000000  0.525439  0.451937  1
  Si  Si1644  1  0.000000  0.974538  0.451938  1
  Si  Si1645  1  0.000000  0.628966  0.482677  1
  Si  Si1646  1  0.302065  0.975330  0.444331  1
  Si  Si1647  1  0.697773  0.975356  0.444333  1
  Si  Si1648  1  0.697807  0.524634  0.444327  1
  Si  Si1649  1  0.302092  0.524617  0.444333  1
  Si  Si1650  1  0.189160  0.941062  0.460826  1
  Si  Si1651  1  0.810728  0.941074  0.460823  1
  Si  Si1652  1  0.810720  0.558913  0.460821  1
  Si  Si1653  1  0.189159  0.558905  0.460825  1
  Si  Si1654  1  0.702567  0.938171  0.517789  1
  Si  Si1655  1  0.297321  0.938180  0.517811  1
  Si  Si1656  1  0.297331  0.561787  0.517810  1
  Si  Si1657  1  0.702581  0.561773  0.517792  1
  Si  Si1658  1  0.696685  0.869419  0.490150  1
  Si  Si1659  1  0.303100  0.869389  0.490159  1
  Si  Si1660  1  0.303112  0.630583  0.490159  1
  Si  Si1661  1  0.696702  0.630549  0.490151  1
  Si  Si1662  1  0.797988  0.826540  0.507151  1
  Si  Si1663  1  0.201890  0.826563  0.507168  1
  Si  Si1664  1  0.201907  0.673412  0.507168  1
  Si  Si1665  1  0.798002  0.673400  0.507153  1
  Si  Si1666  1  0.812501  0.826539  0.474120  1
  Si  Si1667  1  0.187322  0.826533  0.474123  1
  Si  Si1668  1  0.187336  0.673433  0.474123  1
  Si  Si1669  1  0.812509  0.673436  0.474119  1
  Si  Si1670  1  0.205131  0.942284  0.426836  1
  Si  Si1671  1  0.794783  0.942292  0.426843  1
  Si  Si1672  1  0.794742  0.557674  0.426831  1
  Si  Si1673  1  0.205091  0.557665  0.426842  1
  Si  Si1674  1  0.300274  0.826682  0.416923  1
  Si  Si1675  1  0.699534  0.826728  0.416932  1
  Si  Si1676  1  0.699576  0.673278  0.416920  1
  Si  Si1677  1  0.300318  0.673232  0.416930  1
  Si  Si1678  1  0.499923  0.945073  0.437512  1
  Si  Si1679  1  0.499937  0.554883  0.437511  1
  Si  Si1680  1  0.499902  0.936557  0.510479  1
  Si  Si1681  1  0.499923  0.563399  0.510480  1
  Si  Si1682  1  0.499913  0.827105  0.496377  1
  Si  Si1683  1  0.499928  0.672851  0.496378  1
  Si  Si1684  1  0.499883  0.826403  0.424744  1
  Si  Si1685  1  0.499967  0.673553  0.424742  1
  Si  Si1686  1  0.000000  0.871196  0.502793  1
  Si  Si1687  1  -0.000000  0.628776  0.502793  1
  Si  Si1688  1  -0.000000  0.871010  0.482677  1
  Si  Si1689  1  0.000000  0.025649  0.503085  1
  Si  Si1690  1  -0.000000  0.474322  0.503083  1
  Si  Si1691  1  0.000000  0.025448  0.482886  1
  Si  Si1692  1  -0.000000  0.474527  0.482884  1
  Si  Si1693  1  0.000000  0.128976  0.452145  1
  Si  Si1694  1  0.302040  0.475358  0.490494  1
  Si  Si1695  1  0.697748  0.475318  0.490488  1
  Si  Si1696  1  0.697759  0.024651  0.490491  1
  Si  Si1697  1  0.302046  0.024616  0.490495  1
  Si  Si1698  1  0.189126  0.441061  0.474001  1
  Si  Si1699  1  0.810686  0.441065  0.473996  1
  Si  Si1700  1  0.810712  0.058917  0.474000  1
  Si  Si1701  1  0.189150  0.058910  0.474000  1
  Si  Si1702  1  0.702521  0.438198  0.417013  1
  Si  Si1703  1  0.297274  0.438155  0.417027  1
  Si  Si1704  1  0.297341  0.061763  0.417017  1
  Si  Si1705  1  0.702591  0.061794  0.417027  1
  Si  Si1706  1  0.696738  0.369408  0.444663  1
  Si  Si1707  1  0.303151  0.369387  0.444670  1
  Si  Si1708  1  0.303131  0.130556  0.444666  1
  Si  Si1709  1  0.696718  0.130587  0.444668  1
  Si  Si1710  1  0.797961  0.326583  0.427654  1
  Si  Si1711  1  0.201865  0.326526  0.427667  1
  Si  Si1712  1  0.201906  0.173380  0.427658  1
  Si  Si1713  1  0.798000  0.173438  0.427664  1
  Si  Si1714  1  0.812517  0.326537  0.460698  1
  Si  Si1715  1  0.187348  0.326533  0.460703  1
  Si  Si1716  1  0.187353  0.173434  0.460702  1
  Si  Si1717  1  0.812521  0.173438  0.460701  1
  Si  Si1718  1  0.205092  0.442325  0.507989  1
  Si  Si1719  1  0.794745  0.442251  0.507978  1
  Si  Si1720  1  0.794745  0.057717  0.507982  1
  Si  Si1721  1  0.205096  0.057646  0.507990  1
  Si  Si1722  1  0.300256  0.326712  0.517896  1
  Si  Si1723  1  0.699517  0.326703  0.517895  1
  Si  Si1724  1  0.699509  0.173252  0.517903  1
  Si  Si1725  1  0.300250  0.173263  0.517897  1
  Si  Si1726  1  0.499900  0.445072  0.497311  1
  Si  Si1727  1  0.499903  0.054896  0.497312  1
  Si  Si1728  1  0.499924  0.436560  0.424341  1
  Si  Si1729  1  0.499944  0.063396  0.424343  1
  Si  Si1730  1  0.499936  0.327109  0.438443  1
  Si  Si1731  1  0.499921  0.172855  0.438443  1
  Si  Si1732  1  0.499887  0.326402  0.510079  1
  Si  Si1733  1  0.499895  0.173552  0.510083  1
  Si  Si1734  1  0.000000  0.371186  0.432029  1
  Si  Si1735  1  0.000000  0.128781  0.432029  1
  Si  Si1736  1  -0.000000  0.371001  0.452145  1
  Si  Si1737  1  -0.000000  0.826326  0.374869  1
  Si  Si1738  1  0.499999  0.628944  0.298464  1
  Si  Si1739  1  0.000000  0.673652  0.374866  1
  Si  Si1740  1  0.309971  0.872137  0.397740  1
  Si  Si1741  1  0.689852  0.872349  0.397756  1
  Si  Si1742  1  0.689846  0.627834  0.397737  1
  Si  Si1743  1  0.309947  0.627603  0.397754  1
  Si  Si1744  1  0.292983  0.939727  0.370204  1
  Si  Si1745  1  0.706513  0.940140  0.370197  1
  Si  Si1746  1  0.706846  0.560251  0.370200  1
  Si  Si1747  1  0.293311  0.559833  0.370196  1
  Si  Si1748  1  0.191300  0.972081  0.353061  1
  Si  Si1749  1  0.808635  0.972289  0.353069  1
  Si  Si1750  1  0.808549  0.527872  0.353058  1
  Si  Si1751  1  0.191199  0.527646  0.353068  1
  Si  Si1752  1  0.202640  0.938130  0.333586  1
  Si  Si1753  1  0.797395  0.938164  0.333596  1
  Si  Si1754  1  0.797317  0.561778  0.333582  1
  Si  Si1755  1  0.202564  0.561740  0.333595  1
  Si  Si1756  1  0.196776  0.869366  0.305942  1
  Si  Si1757  1  0.803189  0.869383  0.305945  1
  Si  Si1758  1  0.803199  0.630557  0.305940  1
  Si  Si1759  1  0.196786  0.630525  0.305944  1
  Si  Si1760  1  0.298050  0.826501  0.322946  1
  Si  Si1761  1  0.701955  0.826557  0.322953  1
  Si  Si1762  1  0.701907  0.673412  0.322943  1
  Si  Si1763  1  0.298001  0.673354  0.322953  1
  Si  Si1764  1  0.312587  0.826507  0.289909  1
  Si  Si1765  1  0.687417  0.826513  0.289910  1
  Si  Si1766  1  0.687407  0.673413  0.289906  1
  Si  Si1767  1  0.312578  0.673406  0.289910  1
  Si  Si1768  1  0.204791  0.826518  0.381196  1
  Si  Si1769  1  0.795664  0.827309  0.381231  1
  Si  Si1770  1  0.795024  0.673455  0.381192  1
  Si  Si1771  1  0.204153  0.672664  0.381229  1
  Si  Si1772  1  0.500043  0.561464  0.376100  1
  Si  Si1773  1  0.499789  0.938521  0.376105  1
  Si  Si1774  1  -0.000000  0.558067  0.361518  1
  Si  Si1775  1  -0.000000  0.941918  0.361522  1
  Si  Si1776  1  -0.000000  0.936527  0.326269  1
  Si  Si1777  1  -0.000000  0.563371  0.326267  1
  Si  Si1778  1  -0.000000  0.827081  0.312167  1
  Si  Si1779  1  -0.000000  0.672827  0.312166  1
  Si  Si1780  1  0.499958  0.827127  0.389936  1
  Si  Si1781  1  0.499845  0.672833  0.389935  1
  Si  Si1782  1  0.500001  0.871158  0.318581  1
  Si  Si1783  1  0.499953  0.628752  0.318580  1
  Si  Si1784  1  0.500003  0.870976  0.298465  1
  Si  Si1785  1  0.500151  0.173655  0.375744  1
  Si  Si1786  1  0.499677  0.326329  0.375743  1
  Si  Si1787  1  0.500010  0.025610  0.318873  1
  Si  Si1788  1  0.499942  0.474298  0.318871  1
  Si  Si1789  1  0.500016  0.025415  0.298673  1
  Si  Si1790  1  0.500006  0.474506  0.298671  1
  Si  Si1791  1  0.000000  0.173526  0.325870  1
  Si  Si1792  1  0.802141  0.475326  0.306277  1
  Si  Si1793  1  0.197848  0.475299  0.306281  1
  Si  Si1794  1  0.197833  0.024596  0.306279  1
  Si  Si1795  1  0.802120  0.024608  0.306283  1
  Si  Si1796  1  0.809969  0.372355  0.352855  1
  Si  Si1797  1  0.189854  0.372127  0.352871  1
  Si  Si1798  1  0.189879  0.127596  0.352857  1
  Si  Si1799  1  0.809973  0.127810  0.352874  1
  Si  Si1800  1  0.793317  0.440143  0.380412  1
  Si  Si1801  1  0.206845  0.439725  0.380409  1
  Si  Si1802  1  0.206516  0.059839  0.380416  1
  Si  Si1803  1  0.792982  0.060250  0.380410  1
  Si  Si1804  1  0.689222  0.441045  0.289784  1
  Si  Si1805  1  0.310781  0.441034  0.289787  1
  Si  Si1806  1  0.310794  0.058881  0.289789  1
  Si  Si1807  1  0.689233  0.058889  0.289788  1
  Si  Si1808  1  0.691194  0.472316  0.397540  1
  Si  Si1809  1  0.308530  0.472086  0.397551  1
  Si  Si1810  1  0.308630  0.027657  0.397544  1
  Si  Si1811  1  0.691279  0.027864  0.397551  1
  Si  Si1812  1  0.705125  0.442270  0.323767  1
  Si  Si1813  1  0.294777  0.442259  0.323776  1
  Si  Si1814  1  0.294826  0.057639  0.323770  1
  Si  Si1815  1  0.705176  0.057643  0.323778  1
  Si  Si1816  1  0.704159  0.327310  0.369380  1
  Si  Si1817  1  0.295031  0.326519  0.369416  1
  Si  Si1818  1  0.295668  0.172665  0.369382  1
  Si  Si1819  1  0.704798  0.173455  0.369418  1
  Si  Si1820  1  0.800350  0.326706  0.333679  1
  Si  Si1821  1  0.199611  0.326660  0.333689  1
  Si  Si1822  1  0.199574  0.173210  0.333681  1
  Si  Si1823  1  0.800308  0.173256  0.333691  1
  Si  Si1824  1  0.000000  0.445042  0.313098  1
  Si  Si1825  1  -0.000000  0.054858  0.313101  1
  Si  Si1826  1  0.000000  0.061471  0.374511  1
  Si  Si1827  1  0.000000  0.438510  0.374506  1
  Si  Si1828  1  0.499994  0.058077  0.389093  1
  Si  Si1829  1  0.499819  0.441916  0.389090  1
  Si  Si1830  1  -0.000000  0.327123  0.360674  1
  Si  Si1831  1  0.000000  0.172827  0.360675  1
  Si  Si1832  1  -0.000000  0.326376  0.325868  1
  Si  Si1833  1  -0.000000  0.525639  0.800162  1
  Si  Si1834  1  0.000000  0.974327  0.800163  1
  Si  Si1835  1  -0.000000  0.525439  0.820361  1
  Si  Si1836  1  -0.000000  0.974538  0.820362  1
  Si  Si1837  1  0.000000  0.628966  0.851100  1
  Si  Si1838  1  0.302065  0.975330  0.812754  1
  Si  Si1839  1  0.697773  0.975356  0.812756  1
  Si  Si1840  1  0.697807  0.524634  0.812750  1
  Si  Si1841  1  0.302092  0.524617  0.812757  1
  Si  Si1842  1  0.189160  0.941062  0.829249  1
  Si  Si1843  1  0.810728  0.941074  0.829247  1
  Si  Si1844  1  0.810720  0.558913  0.829244  1
  Si  Si1845  1  0.189159  0.558905  0.829248  1
  Si  Si1846  1  0.702567  0.938171  0.886213  1
  Si  Si1847  1  0.297321  0.938180  0.886234  1
  Si  Si1848  1  0.297331  0.561787  0.886233  1
  Si  Si1849  1  0.702581  0.561773  0.886216  1
  Si  Si1850  1  0.696685  0.869419  0.858574  1
  Si  Si1851  1  0.303100  0.869389  0.858583  1
  Si  Si1852  1  0.303112  0.630583  0.858583  1
  Si  Si1853  1  0.696702  0.630549  0.858574  1
  Si  Si1854  1  0.797988  0.826540  0.875575  1
  Si  Si1855  1  0.201890  0.826563  0.875592  1
  Si  Si1856  1  0.201907  0.673412  0.875592  1
  Si  Si1857  1  0.798002  0.673400  0.875577  1
  Si  Si1858  1  0.812501  0.826539  0.842543  1
  Si  Si1859  1  0.187322  0.826533  0.842547  1
  Si  Si1860  1  0.187336  0.673433  0.842546  1
  Si  Si1861  1  0.812509  0.673436  0.842543  1
  Si  Si1862  1  0.205131  0.942284  0.795259  1
  Si  Si1863  1  0.794783  0.942292  0.795267  1
  Si  Si1864  1  0.794742  0.557674  0.795255  1
  Si  Si1865  1  0.205091  0.557665  0.795266  1
  Si  Si1866  1  0.300274  0.826682  0.785346  1
  Si  Si1867  1  0.699534  0.826728  0.785356  1
  Si  Si1868  1  0.699576  0.673278  0.785344  1
  Si  Si1869  1  0.300318  0.673232  0.785354  1
  Si  Si1870  1  0.499923  0.945073  0.805936  1
  Si  Si1871  1  0.499937  0.554883  0.805934  1
  Si  Si1872  1  0.499902  0.936557  0.878903  1
  Si  Si1873  1  0.499923  0.563399  0.878904  1
  Si  Si1874  1  0.499913  0.827105  0.864801  1
  Si  Si1875  1  0.499928  0.672851  0.864802  1
  Si  Si1876  1  0.499883  0.826403  0.793167  1
  Si  Si1877  1  0.499967  0.673553  0.793166  1
  Si  Si1878  1  -0.000000  0.871196  0.871217  1
  Si  Si1879  1  0.000000  0.628776  0.871216  1
  Si  Si1880  1  -0.000000  0.871010  0.851101  1
  Si  Si1881  1  -0.000000  0.025649  0.871509  1
  Si  Si1882  1  0.000000  0.474322  0.871507  1
  Si  Si1883  1  0.000000  0.025448  0.851309  1
  Si  Si1884  1  -0.000000  0.474527  0.851307  1
  Si  Si1885  1  -0.000000  0.128976  0.820569  1
  Si  Si1886  1  0.302040  0.475358  0.858917  1
  Si  Si1887  1  0.697748  0.475318  0.858912  1
  Si  Si1888  1  0.697759  0.024651  0.858914  1
  Si  Si1889  1  0.302046  0.024616  0.858918  1
  Si  Si1890  1  0.189126  0.441061  0.842424  1
  Si  Si1891  1  0.810686  0.441065  0.842419  1
  Si  Si1892  1  0.810712  0.058917  0.842423  1
  Si  Si1893  1  0.189150  0.058910  0.842424  1
  Si  Si1894  1  0.702521  0.438198  0.785436  1
  Si  Si1895  1  0.297274  0.438155  0.785450  1
  Si  Si1896  1  0.297341  0.061763  0.785441  1
  Si  Si1897  1  0.702591  0.061794  0.785450  1
  Si  Si1898  1  0.696738  0.369408  0.813086  1
  Si  Si1899  1  0.303151  0.369387  0.813093  1
  Si  Si1900  1  0.303131  0.130556  0.813090  1
  Si  Si1901  1  0.696718  0.130587  0.813091  1
  Si  Si1902  1  0.797961  0.326583  0.796078  1
  Si  Si1903  1  0.201865  0.326526  0.796090  1
  Si  Si1904  1  0.201906  0.173380  0.796082  1
  Si  Si1905  1  0.798000  0.173438  0.796088  1
  Si  Si1906  1  0.812517  0.326537  0.829122  1
  Si  Si1907  1  0.187348  0.326533  0.829126  1
  Si  Si1908  1  0.187353  0.173434  0.829125  1
  Si  Si1909  1  0.812521  0.173438  0.829125  1
  Si  Si1910  1  0.205092  0.442325  0.876412  1
  Si  Si1911  1  0.794745  0.442251  0.876402  1
  Si  Si1912  1  0.794745  0.057717  0.876405  1
  Si  Si1913  1  0.205096  0.057646  0.876413  1
  Si  Si1914  1  0.300256  0.326712  0.886320  1
  Si  Si1915  1  0.699517  0.326703  0.886319  1
  Si  Si1916  1  0.699509  0.173252  0.886326  1
  Si  Si1917  1  0.300250  0.173263  0.886320  1
  Si  Si1918  1  0.499900  0.445072  0.865734  1
  Si  Si1919  1  0.499903  0.054896  0.865735  1
  Si  Si1920  1  0.499924  0.436560  0.792764  1
  Si  Si1921  1  0.499944  0.063396  0.792766  1
  Si  Si1922  1  0.499936  0.327109  0.806867  1
  Si  Si1923  1  0.499921  0.172855  0.806867  1
  Si  Si1924  1  0.499887  0.326402  0.878503  1
  Si  Si1925  1  0.499895  0.173552  0.878507  1
  Si  Si1926  1  0.000000  0.371186  0.800452  1
  Si  Si1927  1  0.000000  0.128781  0.800453  1
  Si  Si1928  1  -0.000000  0.371001  0.820569  1
  Si  Si1929  1  0.000000  0.826326  0.743292  1
  Si  Si1930  1  0.499999  0.628944  0.666887  1
  Si  Si1931  1  -0.000000  0.673652  0.743290  1
  Si  Si1932  1  0.309971  0.872137  0.766163  1
  Si  Si1933  1  0.689852  0.872349  0.766180  1
  Si  Si1934  1  0.689846  0.627834  0.766160  1
  Si  Si1935  1  0.309947  0.627603  0.766178  1
  Si  Si1936  1  0.292983  0.939727  0.738628  1
  Si  Si1937  1  0.706513  0.940140  0.738621  1
  Si  Si1938  1  0.706846  0.560251  0.738623  1
  Si  Si1939  1  0.293311  0.559833  0.738619  1
  Si  Si1940  1  0.191300  0.972081  0.721484  1
  Si  Si1941  1  0.808635  0.972289  0.721493  1
  Si  Si1942  1  0.808549  0.527872  0.721481  1
  Si  Si1943  1  0.191199  0.527646  0.721491  1
  Si  Si1944  1  0.202640  0.938130  0.702010  1
  Si  Si1945  1  0.797395  0.938164  0.702020  1
  Si  Si1946  1  0.797317  0.561778  0.702005  1
  Si  Si1947  1  0.202564  0.561740  0.702018  1
  Si  Si1948  1  0.196776  0.869366  0.674366  1
  Si  Si1949  1  0.803189  0.869383  0.674369  1
  Si  Si1950  1  0.803199  0.630557  0.674363  1
  Si  Si1951  1  0.196786  0.630525  0.674368  1
  Si  Si1952  1  0.298050  0.826501  0.691369  1
  Si  Si1953  1  0.701955  0.826557  0.691377  1
  Si  Si1954  1  0.701907  0.673412  0.691366  1
  Si  Si1955  1  0.298001  0.673354  0.691376  1
  Si  Si1956  1  0.312587  0.826507  0.658333  1
  Si  Si1957  1  0.687417  0.826513  0.658333  1
  Si  Si1958  1  0.687407  0.673413  0.658330  1
  Si  Si1959  1  0.312578  0.673406  0.658334  1
  Si  Si1960  1  0.204791  0.826518  0.749619  1
  Si  Si1961  1  0.795664  0.827309  0.749655  1
  Si  Si1962  1  0.795024  0.673455  0.749616  1
  Si  Si1963  1  0.204153  0.672664  0.749652  1
  Si  Si1964  1  0.500043  0.561464  0.744524  1
  Si  Si1965  1  0.499789  0.938521  0.744529  1
  Si  Si1966  1  0.000000  0.558067  0.729942  1
  Si  Si1967  1  0.000000  0.941918  0.729946  1
  Si  Si1968  1  0.000000  0.936527  0.694693  1
  Si  Si1969  1  -0.000000  0.563371  0.694690  1
  Si  Si1970  1  -0.000000  0.827081  0.680590  1
  Si  Si1971  1  -0.000000  0.672827  0.680589  1
  Si  Si1972  1  0.499958  0.827127  0.758360  1
  Si  Si1973  1  0.499845  0.672833  0.758358  1
  Si  Si1974  1  0.500001  0.871158  0.687005  1
  Si  Si1975  1  0.499953  0.628752  0.687004  1
  Si  Si1976  1  0.500003  0.870976  0.666888  1
  Si  Si1977  1  0.500151  0.173655  0.744168  1
  Si  Si1978  1  0.499677  0.326329  0.744166  1
  Si  Si1979  1  0.500010  0.025610  0.687297  1
  Si  Si1980  1  0.499942  0.474298  0.687294  1
  Si  Si1981  1  0.500016  0.025415  0.667097  1
  Si  Si1982  1  0.500006  0.474506  0.667095  1
  Si  Si1983  1  -0.000000  0.173526  0.694293  1
  Si  Si1984  1  0.802141  0.475326  0.674701  1
  Si  Si1985  1  0.197848  0.475299  0.674705  1
  Si  Si1986  1  0.197833  0.024596  0.674703  1
  Si  Si1987  1  0.802120  0.024608  0.674707  1
  Si  Si1988  1  0.809969  0.372355  0.721278  1
  Si  Si1989  1  0.189854  0.372127  0.721295  1
  Si  Si1990  1  0.189879  0.127596  0.721281  1
  Si  Si1991  1  0.809973  0.127810  0.721298  1
  Si  Si1992  1  0.793317  0.440143  0.748836  1
  Si  Si1993  1  0.206845  0.439725  0.748832  1
  Si  Si1994  1  0.206516  0.059839  0.748840  1
  Si  Si1995  1  0.792982  0.060250  0.748833  1
  Si  Si1996  1  0.689222  0.441045  0.658208  1
  Si  Si1997  1  0.310781  0.441034  0.658211  1
  Si  Si1998  1  0.310794  0.058881  0.658212  1
  Si  Si1999  1  0.689233  0.058889  0.658211  1
  Si  Si2000  1  0.691194  0.472316  0.765963  1
  Si  Si2001  1  0.308530  0.472086  0.765975  1
  Si  Si2002  1  0.308630  0.027657  0.765968  1
  Si  Si2003  1  0.691279  0.027864  0.765975  1
  Si  Si2004  1  0.705125  0.442270  0.692190  1
  Si  Si2005  1  0.294777  0.442259  0.692200  1
  Si  Si2006  1  0.294826  0.057639  0.692194  1
  Si  Si2007  1  0.705176  0.057643  0.692202  1
  Si  Si2008  1  0.704159  0.327310  0.737803  1
  Si  Si2009  1  0.295031  0.326519  0.737840  1
  Si  Si2010  1  0.295668  0.172665  0.737806  1
  Si  Si2011  1  0.704798  0.173455  0.737841  1
  Si  Si2012  1  0.800350  0.326706  0.702103  1
  Si  Si2013  1  0.199611  0.326660  0.702112  1
  Si  Si2014  1  0.199574  0.173210  0.702104  1
  Si  Si2015  1  0.800308  0.173256  0.702114  1
  Si  Si2016  1  -0.000000  0.445042  0.681522  1
  Si  Si2017  1  -0.000000  0.054858  0.681524  1
  Si  Si2018  1  0.000000  0.061471  0.742934  1
  Si  Si2019  1  -0.000000  0.438510  0.742930  1
  Si  Si2020  1  0.499994  0.058077  0.757517  1
  Si  Si2021  1  0.499819  0.441916  0.757514  1
  Si  Si2022  1  0.000000  0.327123  0.729098  1
  Si  Si2023  1  0.000000  0.172827  0.729099  1
  Si  Si2024  1  -0.000000  0.326376  0.694291  1
  H  H2025  1  0.286644  0.845379  0.032784  1
  H  H2026  1  0.713094  0.845545  0.032798  1
  H  H2027  1  0.713182  0.654599  0.032781  1
  H  H2028  1  0.286738  0.654438  0.032795  1
  H  H2029  1  0.714494  0.444895  0.032587  1
  H  H2030  1  0.285150  0.444761  0.032601  1
  H  H2031  1  0.285334  0.055066  0.032592  1
  H  H2032  1  0.714699  0.055172  0.032601  1
  H  H2033  1  0.714769  0.944818  0.902213  1
  H  H2034  1  0.285432  0.944820  0.902238  1
  H  H2035  1  0.285434  0.555136  0.902237  1
  H  H2036  1  0.714803  0.555102  0.902216  1
  H  H2037  1  0.286653  0.345486  0.902032  1
  H  H2038  1  0.713100  0.345463  0.902031  1
  H  H2039  1  0.713087  0.154554  0.902041  1
  H  H2040  1  0.286622  0.154503  0.902033  1
