# generated using pymatgen
data_Si55H2O111
_symmetry_space_group_name_H-M   'P 1'
_cell_length_a   25.48081259
_cell_length_b   13.88888375
_cell_length_c   100.66386960
_cell_angle_alpha   90.00000000
_cell_angle_beta   90.00000000
_cell_angle_gamma   90.00000000
_symmetry_Int_Tables_number   1
_chemical_formula_structural   Si55H2O111
_chemical_formula_sum   'Si440 H16 O888'
_cell_volume   35624.9478713
_cell_formula_units_Z   8
loop_
 _symmetry_equiv_pos_site_id
 _symmetry_equiv_pos_as_xyz
  1  'x, y, z'
loop_
 _atom_site_type_symbol
 _atom_site_label
 _atom_site_symmetry_multiplicity
 _atom_site_fract_x
 _atom_site_fract_y
 _atom_site_fract_z
 _atom_site_occupancy
  O  O1  1  0.087549  0.170949  0.059038  1
  O  O2  1  0.411670  0.669817  0.058977  1
  O  O3  1  0.412361  0.329144  0.058991  1
  O  O4  1  0.087407  0.829434  0.059032  1
  O  O5  1  0.095008  0.092322  0.081305  1
  O  O6  1  0.094979  0.592352  0.122451  1
  O  O7  1  0.404113  0.591989  0.081283  1
  O  O8  1  0.403688  0.091824  0.122599  1
  O  O9  1  0.405051  0.907397  0.122326  1
  O  O10  1  0.404852  0.407549  0.081306  1
  O  O11  1  0.095119  0.407927  0.122463  1
  O  O12  1  0.095112  0.907918  0.081296  1
  O  O13  1  0.149915  0.242062  0.077933  1
  O  O14  1  0.350001  0.742857  0.077894  1
  O  O15  1  0.350290  0.257356  0.077934  1
  O  O16  1  0.149721  0.757861  0.077903  1
  O  O17  1  0.050279  0.252153  0.080396  1
  O  O18  1  0.050150  0.752111  0.123354  1
  O  O19  1  0.449681  0.751077  0.080216  1
  O  O20  1  0.449747  0.250747  0.123412  1
  O  O21  1  0.449881  0.747931  0.123576  1
  O  O22  1  0.449949  0.248087  0.080293  1
  O  O23  1  0.050219  0.248242  0.123388  1
  O  O24  1  0.050108  0.748269  0.080382  1
  O  O25  1  0.499435  0.901652  0.087988  1
  O  O26  1  0.190289  0.900521  0.116092  1
  O  O27  1  0.190260  0.400494  0.087658  1
  O  O28  1  0.308524  0.400644  0.116115  1
  O  O29  1  0.308535  0.900701  0.087630  1
  O  O30  1  0.308782  0.099634  0.087663  1
  O  O31  1  0.308822  0.599562  0.116072  1
  O  O32  1  0.190174  0.599451  0.087629  1
  O  O33  1  0.190208  0.099471  0.116122  1
  O  O34  1  0.151312  -0.000000  0.097683  1
  O  O35  1  0.151266  0.500135  0.106067  1
  O  O36  1  0.349525  0.499484  0.097944  1
  O  O37  1  0.349602  0.000000  0.105776  1
  O  O38  1  0.250589  0.000000  0.102239  1
  O  O39  1  0.250545  0.500287  0.101516  1
  O  O40  1  0.181350  0.250003  0.101893  1
  O  O41  1  0.181242  0.750015  0.101860  1
  O  O42  1  0.318526  0.750109  0.101847  1
  O  O43  1  0.318678  0.250072  0.101904  1
  O  O44  1  0.249977  0.249463  0.119736  1
  O  O45  1  0.249856  0.749603  0.084015  1
  O  O46  1  0.249946  0.750388  0.119694  1
  O  O47  1  0.250085  0.250589  0.084057  1
  O  O48  1  0.050637  0.000000  0.099525  1
  O  O49  1  0.050600  0.499913  0.104237  1
  O  O50  1  0.449712  0.500663  0.099425  1
  O  O51  1  0.449844  0.002369  0.104382  1
  O  O52  1  0.499936  0.401462  0.115808  1
  O  O53  1  0.588660  0.670468  0.058882  1
  O  O54  1  0.910792  0.170094  0.058611  1
  O  O55  1  0.910641  0.830532  0.058647  1
  O  O56  1  0.589391  0.330694  0.058843  1
  O  O57  1  0.595077  0.592848  0.081288  1
  O  O58  1  0.595229  0.092717  0.122408  1
  O  O59  1  0.904755  0.092162  0.080998  1
  O  O60  1  0.904821  0.592190  0.122751  1
  O  O61  1  0.904990  0.407696  0.122699  1
  O  O62  1  0.904998  0.907654  0.081081  1
  O  O63  1  0.596166  0.907975  0.122622  1
  O  O64  1  0.596194  0.408103  0.081198  1
  O  O65  1  0.650048  0.742834  0.077925  1
  O  O66  1  0.850126  0.242457  0.077816  1
  O  O67  1  0.849918  0.757923  0.077829  1
  O  O68  1  0.650361  0.256990  0.077874  1
  O  O69  1  0.550075  0.752769  0.079799  1
  O  O70  1  0.949982  0.251869  0.079608  1
  O  O71  1  0.949874  0.752018  0.124162  1
  O  O72  1  0.949931  0.247852  0.124175  1
  O  O73  1  0.949816  0.747773  0.079575  1
  O  O74  1  0.550277  0.748546  0.123928  1
  O  O75  1  0.550349  0.248803  0.079721  1
  O  O76  1  0.501847  0.750002  0.101877  1
  O  O77  1  0.502650  0.250153  0.101872  1
  O  O78  1  0.996800  0.750019  0.101869  1
  O  O79  1  0.501156  0.098630  0.087963  1
  O  O80  1  0.000000  0.901670  0.115734  1
  O  O81  1  0.000000  0.401629  0.088016  1
  O  O82  1  0.000000  0.598395  0.087995  1
  O  O83  1  0.691419  0.400628  0.116041  1
  O  O84  1  0.691466  0.900450  0.087699  1
  O  O85  1  0.810317  0.900735  0.116044  1
  O  O86  1  0.810281  0.400739  0.087724  1
  O  O87  1  0.810225  0.599472  0.087732  1
  O  O88  1  0.810187  0.099458  0.116032  1
  O  O89  1  0.691681  0.099323  0.087677  1
  O  O90  1  0.691701  0.599464  0.116094  1
  O  O91  1  0.650667  0.500757  0.097881  1
  O  O92  1  0.650721  0.000000  0.105875  1
  O  O93  1  0.848806  0.000000  0.097496  1
  O  O94  1  0.848762  0.500055  0.106276  1
  O  O95  1  0.749655  0.499926  0.101509  1
  O  O96  1  0.749681  0.000000  0.102244  1
  O  O97  1  0.681412  0.750019  0.101907  1
  O  O98  1  0.681564  0.249999  0.101852  1
  O  O99  1  0.819263  0.250056  0.101874  1
  O  O100  1  0.819139  0.750066  0.101885  1
  O  O101  1  0.750240  0.750957  0.119684  1
  O  O102  1  0.750378  0.250705  0.084081  1
  O  O103  1  0.750277  0.249489  0.119650  1
  O  O104  1  0.750140  0.749187  0.084108  1
  O  O105  1  0.550546  0.498911  0.099362  1
  O  O106  1  0.550595  0.998246  0.104402  1
  O  O107  1  0.949324  0.000000  0.099258  1
  O  O108  1  0.949288  0.500368  0.104493  1
  O  O109  1  0.550157  0.252376  0.124055  1
  O  O110  1  0.996970  0.250040  0.101894  1
  O  O111  1  0.500690  0.598472  0.115787  1
  O  O112  1  0.000000  0.098399  0.115763  1
  O  O113  1  0.089787  0.670180  0.198129  1
  O  O114  1  0.087457  0.671018  0.144711  1
  O  O115  1  0.412531  0.170903  0.198379  1
  O  O116  1  0.412258  0.171083  0.144806  1
  O  O117  1  0.411760  0.830401  0.144729  1
  O  O118  1  0.410978  0.831834  0.198199  1
  O  O119  1  0.087495  0.329528  0.144725  1
  O  O120  1  0.089869  0.329875  0.198100  1
  O  O121  1  0.150949  0.744013  0.217134  1
  O  O122  1  0.149794  0.742186  0.125820  1
  O  O123  1  0.350964  0.242985  0.217306  1
  O  O124  1  0.350144  0.243206  0.125883  1
  O  O125  1  0.350141  0.757555  0.125793  1
  O  O126  1  0.350925  0.756441  0.217221  1
  O  O127  1  0.149840  0.257959  0.125851  1
  O  O128  1  0.151003  0.257659  0.217296  1
  O  O129  1  0.001034  0.624058  0.188775  1
  O  O130  1  0.499743  0.876190  0.188682  1
  O  O131  1  0.072079  0.500127  0.188412  1
  O  O132  1  0.070512  0.500314  0.154406  1
  O  O133  1  0.429098  0.001069  0.188511  1
  O  O134  1  0.429279  -0.000000  0.154469  1
  O  O135  1  0.072231  0.635081  0.171424  1
  O  O136  1  0.428557  0.135821  0.171545  1
  O  O137  1  0.427852  0.866211  0.171457  1
  O  O138  1  0.072179  0.365353  0.171411  1
  O  O139  1  0.001013  0.376215  0.188754  1
  O  O140  1  0.589219  0.169764  0.198237  1
  O  O141  1  0.589291  0.169400  0.144860  1
  O  O142  1  0.913089  0.670528  0.198666  1
  O  O143  1  0.910691  0.669974  0.145146  1
  O  O144  1  0.910716  0.330425  0.145120  1
  O  O145  1  0.912961  0.329778  0.198587  1
  O  O146  1  0.588778  0.829610  0.144931  1
  O  O147  1  0.588028  0.828943  0.198380  1
  O  O148  1  0.650725  0.243239  0.217224  1
  O  O149  1  0.650218  0.242793  0.125817  1
  O  O150  1  0.851064  0.742567  0.217453  1
  O  O151  1  0.849994  0.742292  0.125946  1
  O  O152  1  0.850032  0.257787  0.125937  1
  O  O153  1  0.851086  0.256873  0.217356  1
  O  O154  1  0.650198  0.756881  0.125904  1
  O  O155  1  0.650571  0.756207  0.217205  1
  O  O156  1  -0.000000  0.624271  0.154558  1
  O  O157  1  0.571155  0.000000  0.188632  1
  O  O158  1  0.571396  0.000000  0.154604  1
  O  O159  1  0.929914  0.500220  0.188894  1
  O  O160  1  0.928244  0.500448  0.154886  1
  O  O161  1  0.572624  0.134146  0.171572  1
  O  O162  1  0.928156  0.635233  0.171909  1
  O  O163  1  0.928152  0.365444  0.171861  1
  O  O164  1  0.571895  0.864526  0.171650  1
  O  O165  1  0.500542  0.124179  0.188670  1
  O  O166  1  0.000000  0.376531  0.154521  1
  O  O167  1  0.500616  0.124137  0.154434  1
  O  O168  1  0.500080  0.876145  0.154428  1
  O  O169  1  0.090068  0.169464  0.284415  1
  O  O170  1  0.411065  0.668586  0.284313  1
  O  O171  1  0.412681  0.329154  0.284199  1
  O  O172  1  0.089841  0.829929  0.284447  1
  O  O173  1  0.098175  0.592188  0.220457  1
  O  O174  1  0.099290  0.092066  0.262015  1
  O  O175  1  0.404383  0.091941  0.220719  1
  O  O176  1  0.405278  0.592667  0.261752  1
  O  O177  1  0.405403  0.407748  0.261832  1
  O  O178  1  0.404463  0.907217  0.220822  1
  O  O179  1  0.097535  0.907681  0.262087  1
  O  O180  1  0.096123  0.407651  0.220438  1
  O  O181  1  0.151179  0.244295  0.265451  1
  O  O182  1  0.350667  0.742790  0.265256  1
  O  O183  1  0.351306  0.256961  0.265262  1
  O  O184  1  0.150873  0.756705  0.265301  1
  O  O185  1  0.051083  0.750942  0.219139  1
  O  O186  1  0.051294  0.250019  0.263425  1
  O  O187  1  0.450539  0.251235  0.219722  1
  O  O188  1  0.450593  0.752454  0.263511  1
  O  O189  1  0.450858  0.247957  0.262928  1
  O  O190  1  0.450923  0.748381  0.218963  1
  O  O191  1  0.050898  0.748491  0.263550  1
  O  O192  1  0.051111  0.247302  0.218969  1
  O  O193  1  0.004011  0.749282  0.241348  1
  O  O194  1  0.004348  0.250214  0.241198  1
  O  O195  1  0.497449  0.749537  0.241250  1
  O  O196  1  0.002443  0.901536  0.227696  1
  O  O197  1  0.499698  0.624075  0.293887  1
  O  O198  1  0.072002  0.000000  0.294126  1
  O  O199  1  0.429056  0.499188  0.294037  1
  O  O200  1  0.192405  0.400974  0.255591  1
  O  O201  1  0.192988  0.900827  0.226869  1
  O  O202  1  0.309415  0.900573  0.255409  1
  O  O203  1  0.309882  0.400508  0.227190  1
  O  O204  1  0.310188  0.598843  0.227161  1
  O  O205  1  0.309714  0.099131  0.255464  1
  O  O206  1  0.191934  0.099780  0.227009  1
  O  O207  1  0.191328  0.599616  0.255411  1
  O  O208  1  0.145195  0.497783  0.238279  1
  O  O209  1  0.142544  0.998212  0.243501  1
  O  O210  1  0.342832  -0.000000  0.236287  1
  O  O211  1  0.344629  0.499679  0.246201  1
  O  O212  1  0.245681  0.500382  0.240034  1
  O  O213  1  0.243958  0.000000  0.242904  1
  O  O214  1  0.182050  0.750543  0.241189  1
  O  O215  1  0.182256  0.250004  0.241371  1
  O  O216  1  0.319651  0.249719  0.241307  1
  O  O217  1  0.319569  0.750002  0.241236  1
  O  O218  1  0.250746  0.749590  0.259029  1
  O  O219  1  0.250869  0.250100  0.223504  1
  O  O220  1  0.251185  0.250164  0.259180  1
  O  O221  1  0.250934  0.748977  0.223388  1
  O  O222  1  0.044182  0.501425  0.237161  1
  O  O223  1  0.042166  0.001022  0.245956  1
  O  O224  1  0.442376  0.000000  0.239953  1
  O  O225  1  0.444238  0.499823  0.242719  1
  O  O226  1  0.002715  0.401299  0.255073  1
  O  O227  1  0.001096  0.124128  0.293775  1
  O  O228  1  0.000000  0.876023  0.293803  1
  O  O229  1  0.001671  0.597985  0.255197  1
  O  O230  1  0.001647  0.097815  0.227582  1
  O  O231  1  0.587836  0.671697  0.284195  1
  O  O232  1  0.913156  0.170371  0.283891  1
  O  O233  1  0.912777  0.829913  0.283988  1
  O  O234  1  0.589314  0.330494  0.284321  1
  O  O235  1  0.597231  0.092616  0.220612  1
  O  O236  1  0.597232  0.591534  0.262072  1
  O  O237  1  0.905805  0.592570  0.221041  1
  O  O238  1  0.904799  0.092432  0.261513  1
  O  O239  1  0.904469  0.907624  0.261602  1
  O  O240  1  0.905147  0.407561  0.220953  1
  O  O241  1  0.595742  0.407091  0.261924  1
  O  O242  1  0.598696  0.908300  0.220578  1
  O  O243  1  0.650256  0.743222  0.265281  1
  O  O244  1  0.851298  0.243273  0.265146  1
  O  O245  1  0.850751  0.757034  0.265244  1
  O  O246  1  0.650891  0.257677  0.265318  1
  O  O247  1  0.550823  0.251830  0.219189  1
  O  O248  1  0.550845  0.750648  0.262675  1
  O  O249  1  0.950758  0.752614  0.219904  1
  O  O250  1  0.950992  0.251629  0.262622  1
  O  O251  1  0.950470  0.748282  0.262750  1
  O  O252  1  0.950734  0.247902  0.219810  1
  O  O253  1  0.551118  0.246660  0.263378  1
  O  O254  1  0.551187  0.750006  0.219895  1
  O  O255  1  0.503084  0.250589  0.241304  1
  O  O256  1  0.928101  0.865483  0.310711  1
  O  O257  1  0.928232  0.135282  0.310650  1
  O  O258  1  0.501168  0.401857  0.227447  1
  O  O259  1  0.571236  0.501136  0.293934  1
  O  O260  1  0.929982  -0.000000  0.293672  1
  O  O261  1  0.571857  0.635861  0.310937  1
  O  O262  1  0.691857  0.900707  0.255615  1
  O  O263  1  0.691681  0.400386  0.227002  1
  O  O264  1  0.809789  0.400921  0.255420  1
  O  O265  1  0.809057  0.900423  0.227092  1
  O  O266  1  0.809214  0.099135  0.227080  1
  O  O267  1  0.809332  0.599402  0.255475  1
  O  O268  1  0.691338  0.599152  0.227056  1
  O  O269  1  0.692439  0.099751  0.255693  1
  O  O270  1  0.642336  0.001428  0.239116  1
  O  O271  1  0.645369  0.498812  0.244327  1
  O  O272  1  0.844700  0.500517  0.236525  1
  O  O273  1  0.842848  0.000000  0.246140  1
  O  O274  1  0.743778  0.000000  0.239701  1
  O  O275  1  0.745645  0.499852  0.242436  1
  O  O276  1  0.682207  0.249686  0.241287  1
  O  O277  1  0.681888  0.750267  0.241267  1
  O  O278  1  0.818959  0.750150  0.241329  1
  O  O279  1  0.819265  0.249935  0.241255  1
  O  O280  1  0.750899  0.250579  0.259151  1
  O  O281  1  0.750660  0.749181  0.223427  1
  O  O282  1  0.750372  0.749916  0.259173  1
  O  O283  1  0.750781  0.250160  0.223398  1
  O  O284  1  0.541980  0.998862  0.236735  1
  O  O285  1  0.544209  0.501452  0.245158  1
  O  O286  1  0.944401  0.499089  0.240058  1
  O  O287  1  0.942637  0.000000  0.242398  1
  O  O288  1  0.501137  0.097820  0.254883  1
  O  O289  1  0.500627  0.598586  0.227360  1
  O  O290  1  0.500588  0.901473  0.254932  1
  O  O291  1  0.500585  0.376271  0.293883  1
  O  O292  1  0.572672  0.366203  0.310963  1
  O  O293  1  0.087549  0.170949  0.337839  1
  O  O294  1  0.411670  0.669817  0.337778  1
  O  O295  1  0.412361  0.329144  0.337792  1
  O  O296  1  0.087407  0.829434  0.337833  1
  O  O297  1  0.095008  0.092322  0.360106  1
  O  O298  1  0.094979  0.592352  0.401252  1
  O  O299  1  0.404113  0.591989  0.360084  1
  O  O300  1  0.403688  0.091824  0.401399  1
  O  O301  1  0.405051  0.907397  0.401127  1
  O  O302  1  0.404852  0.407549  0.360107  1
  O  O303  1  0.095119  0.407927  0.401264  1
  O  O304  1  0.095112  0.907918  0.360097  1
  O  O305  1  0.149915  0.242062  0.356734  1
  O  O306  1  0.350001  0.742857  0.356695  1
  O  O307  1  0.350290  0.257356  0.356735  1
  O  O308  1  0.149721  0.757861  0.356704  1
  O  O309  1  0.050279  0.252153  0.359197  1
  O  O310  1  0.050150  0.752111  0.402155  1
  O  O311  1  0.449681  0.751077  0.359017  1
  O  O312  1  0.449747  0.250747  0.402213  1
  O  O313  1  0.449881  0.747931  0.402377  1
  O  O314  1  0.449949  0.248087  0.359094  1
  O  O315  1  0.050219  0.248242  0.402188  1
  O  O316  1  0.050108  0.748269  0.359183  1
  O  O317  1  0.427793  0.633968  0.311071  1
  O  O318  1  0.499435  0.901652  0.366789  1
  O  O319  1  0.070534  0.000000  0.328154  1
  O  O320  1  0.429270  0.499220  0.328082  1
  O  O321  1  0.072320  0.134943  0.311126  1
  O  O322  1  0.428612  0.364355  0.311026  1
  O  O323  1  0.072142  0.865281  0.311149  1
  O  O324  1  0.190289  0.900521  0.394893  1
  O  O325  1  0.190260  0.400494  0.366458  1
  O  O326  1  0.308524  0.400644  0.394916  1
  O  O327  1  0.308535  0.900701  0.366431  1
  O  O328  1  0.308782  0.099634  0.366464  1
  O  O329  1  0.308822  0.599562  0.394873  1
  O  O330  1  0.190174  0.599451  0.366430  1
  O  O331  1  0.190208  0.099471  0.394923  1
  O  O332  1  0.151312  0.000000  0.376484  1
  O  O333  1  0.151266  0.500135  0.384868  1
  O  O334  1  0.349525  0.499484  0.376745  1
  O  O335  1  0.349602  -0.000000  0.384577  1
  O  O336  1  0.250589  -0.000000  0.381039  1
  O  O337  1  0.250545  0.500287  0.380317  1
  O  O338  1  0.181350  0.250003  0.380693  1
  O  O339  1  0.181242  0.750015  0.380661  1
  O  O340  1  0.318526  0.750109  0.380648  1
  O  O341  1  0.318678  0.250072  0.380705  1
  O  O342  1  0.249977  0.249463  0.398536  1
  O  O343  1  0.249856  0.749603  0.362816  1
  O  O344  1  0.249946  0.750388  0.398495  1
  O  O345  1  0.250085  0.250589  0.362858  1
  O  O346  1  0.050637  0.000000  0.378326  1
  O  O347  1  0.050600  0.499913  0.383038  1
  O  O348  1  0.449712  0.500663  0.378226  1
  O  O349  1  0.449844  0.002369  0.383183  1
  O  O350  1  0.499936  0.401462  0.394609  1
  O  O351  1  0.588660  0.670468  0.337683  1
  O  O352  1  0.910792  0.170094  0.337412  1
  O  O353  1  0.910641  0.830532  0.337448  1
  O  O354  1  0.589391  0.330694  0.337644  1
  O  O355  1  0.595077  0.592848  0.360089  1
  O  O356  1  0.595229  0.092717  0.401209  1
  O  O357  1  0.904755  0.092162  0.359799  1
  O  O358  1  0.904821  0.592190  0.401552  1
  O  O359  1  0.904990  0.407696  0.401500  1
  O  O360  1  0.904998  0.907654  0.359882  1
  O  O361  1  0.596166  0.907975  0.401423  1
  O  O362  1  0.596194  0.408103  0.359999  1
  O  O363  1  0.650048  0.742834  0.356726  1
  O  O364  1  0.850126  0.242457  0.356617  1
  O  O365  1  0.849918  0.757923  0.356630  1
  O  O366  1  0.650361  0.256990  0.356675  1
  O  O367  1  0.550075  0.752769  0.358600  1
  O  O368  1  0.949982  0.251869  0.358409  1
  O  O369  1  0.949874  0.752018  0.402963  1
  O  O370  1  0.949931  0.247852  0.402976  1
  O  O371  1  0.949816  0.747773  0.358376  1
  O  O372  1  0.550277  0.748546  0.402729  1
  O  O373  1  0.550349  0.248803  0.358522  1
  O  O374  1  0.501847  0.750002  0.380678  1
  O  O375  1  0.502650  0.250153  0.380673  1
  O  O376  1  0.996800  0.750019  0.380670  1
  O  O377  1  0.501156  0.098630  0.366764  1
  O  O378  1  -0.000000  0.901670  0.394535  1
  O  O379  1  0.000000  0.401629  0.366817  1
  O  O380  1  0.500036  0.624043  0.328123  1
  O  O381  1  0.000000  0.598395  0.366796  1
  O  O382  1  0.000000  0.876532  0.328045  1
  O  O383  1  0.571390  0.500902  0.327954  1
  O  O384  1  0.928268  0.000000  0.327679  1
  O  O385  1  0.691419  0.400628  0.394842  1
  O  O386  1  0.691466  0.900450  0.366500  1
  O  O387  1  0.810317  0.900735  0.394845  1
  O  O388  1  0.810281  0.400739  0.366525  1
  O  O389  1  0.810225  0.599472  0.366533  1
  O  O390  1  0.810187  0.099458  0.394833  1
  O  O391  1  0.691681  0.099323  0.366478  1
  O  O392  1  0.691701  0.599464  0.394895  1
  O  O393  1  0.650667  0.500757  0.376682  1
  O  O394  1  0.650721  -0.000000  0.384676  1
  O  O395  1  0.848806  -0.000000  0.376297  1
  O  O396  1  0.848762  0.500055  0.385077  1
  O  O397  1  0.749655  0.499926  0.380310  1
  O  O398  1  0.749681  0.000000  0.381044  1
  O  O399  1  0.681412  0.750019  0.380708  1
  O  O400  1  0.681564  0.249999  0.380653  1
  O  O401  1  0.819263  0.250056  0.380675  1
  O  O402  1  0.819139  0.750066  0.380686  1
  O  O403  1  0.750240  0.750957  0.398485  1
  O  O404  1  0.750378  0.250705  0.362882  1
  O  O405  1  0.750277  0.249489  0.398451  1
  O  O406  1  0.750140  0.749187  0.362909  1
  O  O407  1  0.550546  0.498911  0.378163  1
  O  O408  1  0.550595  0.998246  0.383203  1
  O  O409  1  0.949324  -0.000000  0.378059  1
  O  O410  1  0.949288  0.500368  0.383294  1
  O  O411  1  0.550157  0.252376  0.402856  1
  O  O412  1  0.996970  0.250040  0.380695  1
  O  O413  1  0.500651  0.376045  0.328116  1
  O  O414  1  0.500690  0.598472  0.394588  1
  O  O415  1  0.000000  0.098399  0.394564  1
  O  O416  1  -0.000000  0.124288  0.328000  1
  O  O417  1  0.089787  0.670180  0.476930  1
  O  O418  1  0.087457  0.671018  0.423512  1
  O  O419  1  0.412531  0.170903  0.477180  1
  O  O420  1  0.412258  0.171083  0.423607  1
  O  O421  1  0.411760  0.830401  0.423530  1
  O  O422  1  0.410978  0.831834  0.477000  1
  O  O423  1  0.087495  0.329528  0.423526  1
  O  O424  1  0.089869  0.329875  0.476901  1
  O  O425  1  0.150949  0.744013  0.495935  1
  O  O426  1  0.149794  0.742186  0.404621  1
  O  O427  1  0.350964  0.242985  0.496107  1
  O  O428  1  0.350144  0.243206  0.404684  1
  O  O429  1  0.350141  0.757555  0.404594  1
  O  O430  1  0.350925  0.756441  0.496022  1
  O  O431  1  0.149840  0.257959  0.404652  1
  O  O432  1  0.151003  0.257659  0.496097  1
  O  O433  1  0.001034  0.624058  0.467576  1
  O  O434  1  0.499743  0.876190  0.467483  1
  O  O435  1  0.072079  0.500127  0.467213  1
  O  O436  1  0.070512  0.500314  0.433207  1
  O  O437  1  0.429098  0.001069  0.467312  1
  O  O438  1  0.429279  0.000000  0.433270  1
  O  O439  1  0.072231  0.635081  0.450225  1
  O  O440  1  0.428557  0.135821  0.450346  1
  O  O441  1  0.427852  0.866211  0.450258  1
  O  O442  1  0.072179  0.365353  0.450212  1
  O  O443  1  0.001013  0.376215  0.467555  1
  O  O444  1  0.589219  0.169764  0.477038  1
  O  O445  1  0.589291  0.169400  0.423661  1
  O  O446  1  0.913089  0.670528  0.477467  1
  O  O447  1  0.910691  0.669974  0.423947  1
  O  O448  1  0.910716  0.330425  0.423921  1
  O  O449  1  0.912961  0.329778  0.477388  1
  O  O450  1  0.588778  0.829610  0.423732  1
  O  O451  1  0.588028  0.828943  0.477181  1
  O  O452  1  0.650725  0.243239  0.496025  1
  O  O453  1  0.650218  0.242793  0.404618  1
  O  O454  1  0.851064  0.742567  0.496254  1
  O  O455  1  0.849994  0.742292  0.404746  1
  O  O456  1  0.850032  0.257787  0.404738  1
  O  O457  1  0.851086  0.256873  0.496157  1
  O  O458  1  0.650198  0.756881  0.404705  1
  O  O459  1  0.650571  0.756207  0.496006  1
  O  O460  1  -0.000000  0.624271  0.433359  1
  O  O461  1  0.571155  0.000000  0.467433  1
  O  O462  1  0.571396  0.000000  0.433405  1
  O  O463  1  0.929914  0.500220  0.467695  1
  O  O464  1  0.928244  0.500448  0.433687  1
  O  O465  1  0.572624  0.134146  0.450373  1
  O  O466  1  0.928156  0.635233  0.450710  1
  O  O467  1  0.928152  0.365444  0.450662  1
  O  O468  1  0.571895  0.864526  0.450451  1
  O  O469  1  0.500542  0.124179  0.467471  1
  O  O470  1  -0.000000  0.376531  0.433322  1
  O  O471  1  0.500616  0.124137  0.433235  1
  O  O472  1  0.500080  0.876145  0.433229  1
  O  O473  1  0.090068  0.169464  0.563216  1
  O  O474  1  0.411065  0.668586  0.563114  1
  O  O475  1  0.412681  0.329154  0.563000  1
  O  O476  1  0.089841  0.829929  0.563248  1
  O  O477  1  0.098175  0.592188  0.499258  1
  O  O478  1  0.099290  0.092066  0.540816  1
  O  O479  1  0.404383  0.091941  0.499520  1
  O  O480  1  0.405278  0.592667  0.540553  1
  O  O481  1  0.405403  0.407748  0.540633  1
  O  O482  1  0.404463  0.907217  0.499623  1
  O  O483  1  0.097535  0.907681  0.540888  1
  O  O484  1  0.096123  0.407651  0.499239  1
  O  O485  1  0.151179  0.244295  0.544252  1
  O  O486  1  0.350667  0.742790  0.544057  1
  O  O487  1  0.351306  0.256961  0.544063  1
  O  O488  1  0.150873  0.756705  0.544102  1
  O  O489  1  0.051083  0.750942  0.497940  1
  O  O490  1  0.051294  0.250019  0.542225  1
  O  O491  1  0.450539  0.251235  0.498523  1
  O  O492  1  0.450593  0.752454  0.542312  1
  O  O493  1  0.450858  0.247957  0.541729  1
  O  O494  1  0.450923  0.748381  0.497764  1
  O  O495  1  0.050898  0.748491  0.542351  1
  O  O496  1  0.051111  0.247302  0.497770  1
  O  O497  1  0.004011  0.749282  0.520149  1
  O  O498  1  0.004348  0.250214  0.519999  1
  O  O499  1  0.497449  0.749537  0.520051  1
  O  O500  1  0.002443  0.901536  0.506497  1
  O  O501  1  0.499698  0.624075  0.572688  1
  O  O502  1  0.072002  0.000000  0.572926  1
  O  O503  1  0.429056  0.499188  0.572838  1
  O  O504  1  0.192405  0.400974  0.534392  1
  O  O505  1  0.192988  0.900827  0.505670  1
  O  O506  1  0.309415  0.900573  0.534210  1
  O  O507  1  0.309882  0.400508  0.505991  1
  O  O508  1  0.310188  0.598843  0.505962  1
  O  O509  1  0.309714  0.099131  0.534265  1
  O  O510  1  0.191934  0.099780  0.505810  1
  O  O511  1  0.191328  0.599616  0.534212  1
  O  O512  1  0.145195  0.497783  0.517080  1
  O  O513  1  0.142544  0.998212  0.522302  1
  O  O514  1  0.342832  0.000000  0.515088  1
  O  O515  1  0.344629  0.499679  0.525002  1
  O  O516  1  0.245681  0.500382  0.518835  1
  O  O517  1  0.243958  -0.000000  0.521705  1
  O  O518  1  0.182050  0.750543  0.519990  1
  O  O519  1  0.182256  0.250004  0.520172  1
  O  O520  1  0.319651  0.249719  0.520108  1
  O  O521  1  0.319569  0.750002  0.520037  1
  O  O522  1  0.250746  0.749590  0.537830  1
  O  O523  1  0.250869  0.250100  0.502305  1
  O  O524  1  0.251185  0.250164  0.537981  1
  O  O525  1  0.250934  0.748977  0.502189  1
  O  O526  1  0.044182  0.501425  0.515962  1
  O  O527  1  0.042166  0.001022  0.524757  1
  O  O528  1  0.442376  -0.000000  0.518754  1
  O  O529  1  0.444238  0.499823  0.521519  1
  O  O530  1  0.002715  0.401299  0.533874  1
  O  O531  1  0.001096  0.124128  0.572576  1
  O  O532  1  -0.000000  0.876023  0.572604  1
  O  O533  1  0.001671  0.597985  0.533998  1
  O  O534  1  0.001647  0.097815  0.506383  1
  O  O535  1  0.587836  0.671697  0.562996  1
  O  O536  1  0.913156  0.170371  0.562692  1
  O  O537  1  0.912777  0.829913  0.562789  1
  O  O538  1  0.589314  0.330494  0.563122  1
  O  O539  1  0.597231  0.092616  0.499413  1
  O  O540  1  0.597232  0.591534  0.540873  1
  O  O541  1  0.905805  0.592570  0.499842  1
  O  O542  1  0.904799  0.092432  0.540314  1
  O  O543  1  0.904469  0.907624  0.540403  1
  O  O544  1  0.905147  0.407561  0.499754  1
  O  O545  1  0.595742  0.407091  0.540725  1
  O  O546  1  0.598696  0.908300  0.499379  1
  O  O547  1  0.650256  0.743222  0.544082  1
  O  O548  1  0.851298  0.243273  0.543947  1
  O  O549  1  0.850751  0.757034  0.544045  1
  O  O550  1  0.650891  0.257677  0.544119  1
  O  O551  1  0.550823  0.251830  0.497990  1
  O  O552  1  0.550845  0.750648  0.541476  1
  O  O553  1  0.950758  0.752614  0.498705  1
  O  O554  1  0.950992  0.251629  0.541423  1
  O  O555  1  0.950470  0.748282  0.541550  1
  O  O556  1  0.950734  0.247902  0.498611  1
  O  O557  1  0.551118  0.246660  0.542179  1
  O  O558  1  0.551187  0.750006  0.498696  1
  O  O559  1  0.503084  0.250589  0.520105  1
  O  O560  1  0.928101  0.865483  0.589512  1
  O  O561  1  0.928232  0.135282  0.589451  1
  O  O562  1  0.501168  0.401857  0.506248  1
  O  O563  1  0.571236  0.501136  0.572735  1
  O  O564  1  0.929982  0.000000  0.572473  1
  O  O565  1  0.571857  0.635861  0.589738  1
  O  O566  1  0.691857  0.900707  0.534416  1
  O  O567  1  0.691681  0.400386  0.505803  1
  O  O568  1  0.809789  0.400921  0.534221  1
  O  O569  1  0.809057  0.900423  0.505893  1
  O  O570  1  0.809214  0.099135  0.505881  1
  O  O571  1  0.809332  0.599402  0.534276  1
  O  O572  1  0.691338  0.599152  0.505857  1
  O  O573  1  0.692439  0.099751  0.534494  1
  O  O574  1  0.642336  0.001428  0.517917  1
  O  O575  1  0.645369  0.498812  0.523128  1
  O  O576  1  0.844700  0.500517  0.515326  1
  O  O577  1  0.842848  -0.000000  0.524941  1
  O  O578  1  0.743778  0.000000  0.518502  1
  O  O579  1  0.745645  0.499852  0.521237  1
  O  O580  1  0.682207  0.249686  0.520088  1
  O  O581  1  0.681888  0.750267  0.520068  1
  O  O582  1  0.818959  0.750150  0.520130  1
  O  O583  1  0.819265  0.249935  0.520056  1
  O  O584  1  0.750899  0.250579  0.537952  1
  O  O585  1  0.750660  0.749181  0.502228  1
  O  O586  1  0.750372  0.749916  0.537974  1
  O  O587  1  0.750781  0.250160  0.502199  1
  O  O588  1  0.541980  0.998862  0.515536  1
  O  O589  1  0.544209  0.501452  0.523959  1
  O  O590  1  0.944401  0.499089  0.518859  1
  O  O591  1  0.942637  0.000000  0.521199  1
  O  O592  1  0.501137  0.097820  0.533684  1
  O  O593  1  0.500627  0.598586  0.506161  1
  O  O594  1  0.500588  0.901473  0.533733  1
  O  O595  1  0.500585  0.376271  0.572684  1
  O  O596  1  0.572672  0.366203  0.589764  1
  O  O597  1  0.087549  0.170949  0.616640  1
  O  O598  1  0.411670  0.669817  0.616579  1
  O  O599  1  0.412361  0.329144  0.616593  1
  O  O600  1  0.087407  0.829434  0.616634  1
  O  O601  1  0.095008  0.092322  0.638907  1
  O  O602  1  0.094979  0.592352  0.680053  1
  O  O603  1  0.404113  0.591989  0.638885  1
  O  O604  1  0.403688  0.091824  0.680200  1
  O  O605  1  0.405051  0.907397  0.679928  1
  O  O606  1  0.404852  0.407549  0.638908  1
  O  O607  1  0.095119  0.407927  0.680065  1
  O  O608  1  0.095112  0.907918  0.638897  1
  O  O609  1  0.149915  0.242062  0.635535  1
  O  O610  1  0.350001  0.742857  0.635496  1
  O  O611  1  0.350290  0.257356  0.635536  1
  O  O612  1  0.149721  0.757861  0.635505  1
  O  O613  1  0.050279  0.252153  0.637998  1
  O  O614  1  0.050150  0.752111  0.680956  1
  O  O615  1  0.449681  0.751077  0.637818  1
  O  O616  1  0.449747  0.250747  0.681014  1
  O  O617  1  0.449881  0.747931  0.681178  1
  O  O618  1  0.449949  0.248087  0.637895  1
  O  O619  1  0.050219  0.248242  0.680989  1
  O  O620  1  0.050108  0.748269  0.637984  1
  O  O621  1  0.427793  0.633968  0.589872  1
  O  O622  1  0.499435  0.901652  0.645590  1
  O  O623  1  0.070534  0.000000  0.606955  1
  O  O624  1  0.429270  0.499220  0.606883  1
  O  O625  1  0.072320  0.134943  0.589927  1
  O  O626  1  0.428612  0.364355  0.589827  1
  O  O627  1  0.072142  0.865281  0.589950  1
  O  O628  1  0.190289  0.900521  0.673694  1
  O  O629  1  0.190260  0.400494  0.645259  1
  O  O630  1  0.308524  0.400644  0.673717  1
  O  O631  1  0.308535  0.900701  0.645232  1
  O  O632  1  0.308782  0.099634  0.645265  1
  O  O633  1  0.308822  0.599562  0.673674  1
  O  O634  1  0.190174  0.599451  0.645231  1
  O  O635  1  0.190208  0.099471  0.673724  1
  O  O636  1  0.151312  0.000000  0.655285  1
  O  O637  1  0.151266  0.500135  0.663669  1
  O  O638  1  0.349525  0.499484  0.655546  1
  O  O639  1  0.349602  0.000000  0.663378  1
  O  O640  1  0.250589  -0.000000  0.659840  1
  O  O641  1  0.250545  0.500287  0.659118  1
  O  O642  1  0.181350  0.250003  0.659494  1
  O  O643  1  0.181242  0.750015  0.659462  1
  O  O644  1  0.318526  0.750109  0.659449  1
  O  O645  1  0.318678  0.250072  0.659506  1
  O  O646  1  0.249977  0.249463  0.677337  1
  O  O647  1  0.249856  0.749603  0.641617  1
  O  O648  1  0.249946  0.750388  0.677296  1
  O  O649  1  0.250085  0.250589  0.641659  1
  O  O650  1  0.050637  -0.000000  0.657127  1
  O  O651  1  0.050600  0.499913  0.661839  1
  O  O652  1  0.449712  0.500663  0.657027  1
  O  O653  1  0.449844  0.002369  0.661984  1
  O  O654  1  0.499936  0.401462  0.673410  1
  O  O655  1  0.588660  0.670468  0.616484  1
  O  O656  1  0.910792  0.170094  0.616213  1
  O  O657  1  0.910641  0.830532  0.616249  1
  O  O658  1  0.589391  0.330694  0.616445  1
  O  O659  1  0.595077  0.592848  0.638890  1
  O  O660  1  0.595229  0.092717  0.680010  1
  O  O661  1  0.904755  0.092162  0.638600  1
  O  O662  1  0.904821  0.592190  0.680353  1
  O  O663  1  0.904990  0.407696  0.680301  1
  O  O664  1  0.904998  0.907654  0.638683  1
  O  O665  1  0.596166  0.907975  0.680224  1
  O  O666  1  0.596194  0.408103  0.638800  1
  O  O667  1  0.650048  0.742834  0.635527  1
  O  O668  1  0.850126  0.242457  0.635417  1
  O  O669  1  0.849918  0.757923  0.635431  1
  O  O670  1  0.650361  0.256990  0.635476  1
  O  O671  1  0.550075  0.752769  0.637401  1
  O  O672  1  0.949982  0.251869  0.637210  1
  O  O673  1  0.949874  0.752018  0.681764  1
  O  O674  1  0.949931  0.247852  0.681777  1
  O  O675  1  0.949816  0.747773  0.637177  1
  O  O676  1  0.550277  0.748546  0.681529  1
  O  O677  1  0.550349  0.248803  0.637323  1
  O  O678  1  0.501847  0.750002  0.659479  1
  O  O679  1  0.502650  0.250153  0.659474  1
  O  O680  1  0.996800  0.750019  0.659470  1
  O  O681  1  0.501156  0.098630  0.645565  1
  O  O682  1  0.000000  0.901670  0.673336  1
  O  O683  1  -0.000000  0.401629  0.645618  1
  O  O684  1  0.500036  0.624043  0.606924  1
  O  O685  1  0.000000  0.598395  0.645597  1
  O  O686  1  0.000000  0.876532  0.606846  1
  O  O687  1  0.571390  0.500902  0.606755  1
  O  O688  1  0.928268  0.000000  0.606480  1
  O  O689  1  0.691419  0.400628  0.673642  1
  O  O690  1  0.691466  0.900450  0.645301  1
  O  O691  1  0.810317  0.900735  0.673646  1
  O  O692  1  0.810281  0.400739  0.645326  1
  O  O693  1  0.810225  0.599472  0.645334  1
  O  O694  1  0.810187  0.099458  0.673634  1
  O  O695  1  0.691681  0.099323  0.645279  1
  O  O696  1  0.691701  0.599464  0.673696  1
  O  O697  1  0.650667  0.500757  0.655483  1
  O  O698  1  0.650721  0.000000  0.663477  1
  O  O699  1  0.848806  0.000000  0.655097  1
  O  O700  1  0.848762  0.500055  0.663878  1
  O  O701  1  0.749655  0.499926  0.659111  1
  O  O702  1  0.749681  0.000000  0.659845  1
  O  O703  1  0.681412  0.750019  0.659509  1
  O  O704  1  0.681564  0.249999  0.659454  1
  O  O705  1  0.819263  0.250056  0.659476  1
  O  O706  1  0.819139  0.750066  0.659487  1
  O  O707  1  0.750240  0.750957  0.677286  1
  O  O708  1  0.750378  0.250705  0.641683  1
  O  O709  1  0.750277  0.249489  0.677252  1
  O  O710  1  0.750140  0.749187  0.641710  1
  O  O711  1  0.550546  0.498911  0.656964  1
  O  O712  1  0.550595  0.998246  0.662004  1
  O  O713  1  0.949324  0.000000  0.656860  1
  O  O714  1  0.949288  0.500368  0.662095  1
  O  O715  1  0.550157  0.252376  0.681657  1
  O  O716  1  0.996970  0.250040  0.659496  1
  O  O717  1  0.500651  0.376045  0.606917  1
  O  O718  1  0.500690  0.598472  0.673389  1
  O  O719  1  0.000000  0.098399  0.673365  1
  O  O720  1  -0.000000  0.124288  0.606801  1
  O  O721  1  0.089787  0.670180  0.755731  1
  O  O722  1  0.087457  0.671018  0.702313  1
  O  O723  1  0.412531  0.170903  0.755981  1
  O  O724  1  0.412258  0.171083  0.702408  1
  O  O725  1  0.411760  0.830401  0.702331  1
  O  O726  1  0.410978  0.831834  0.755801  1
  O  O727  1  0.087495  0.329528  0.702327  1
  O  O728  1  0.089869  0.329875  0.755702  1
  O  O729  1  0.150949  0.744013  0.774736  1
  O  O730  1  0.149794  0.742186  0.683422  1
  O  O731  1  0.350964  0.242985  0.774908  1
  O  O732  1  0.350144  0.243206  0.683485  1
  O  O733  1  0.350141  0.757555  0.683395  1
  O  O734  1  0.350925  0.756441  0.774823  1
  O  O735  1  0.149840  0.257959  0.683453  1
  O  O736  1  0.151003  0.257659  0.774898  1
  O  O737  1  0.001034  0.624058  0.746377  1
  O  O738  1  0.499743  0.876190  0.746284  1
  O  O739  1  0.072079  0.500127  0.746014  1
  O  O740  1  0.070512  0.500314  0.712008  1
  O  O741  1  0.429098  0.001069  0.746113  1
  O  O742  1  0.429279  -0.000000  0.712071  1
  O  O743  1  0.072231  0.635081  0.729026  1
  O  O744  1  0.428557  0.135821  0.729147  1
  O  O745  1  0.427852  0.866211  0.729059  1
  O  O746  1  0.072179  0.365353  0.729013  1
  O  O747  1  0.001013  0.376215  0.746356  1
  O  O748  1  0.589219  0.169764  0.755839  1
  O  O749  1  0.589291  0.169400  0.702462  1
  O  O750  1  0.913089  0.670528  0.756268  1
  O  O751  1  0.910691  0.669974  0.702748  1
  O  O752  1  0.910716  0.330425  0.702722  1
  O  O753  1  0.912961  0.329778  0.756189  1
  O  O754  1  0.588778  0.829610  0.702533  1
  O  O755  1  0.588028  0.828943  0.755982  1
  O  O756  1  0.650725  0.243239  0.774826  1
  O  O757  1  0.650218  0.242793  0.683419  1
  O  O758  1  0.851064  0.742567  0.775055  1
  O  O759  1  0.849994  0.742292  0.683547  1
  O  O760  1  0.850032  0.257787  0.683539  1
  O  O761  1  0.851086  0.256873  0.774958  1
  O  O762  1  0.650198  0.756881  0.683506  1
  O  O763  1  0.650571  0.756207  0.774807  1
  O  O764  1  -0.000000  0.624271  0.712160  1
  O  O765  1  0.571155  0.000000  0.746234  1
  O  O766  1  0.571396  0.000000  0.712206  1
  O  O767  1  0.929914  0.500220  0.746496  1
  O  O768  1  0.928244  0.500448  0.712488  1
  O  O769  1  0.572624  0.134146  0.729174  1
  O  O770  1  0.928156  0.635233  0.729511  1
  O  O771  1  0.928152  0.365444  0.729463  1
  O  O772  1  0.571895  0.864526  0.729252  1
  O  O773  1  0.500542  0.124179  0.746272  1
  O  O774  1  -0.000000  0.376531  0.712123  1
  O  O775  1  0.500616  0.124137  0.712036  1
  O  O776  1  0.500080  0.876145  0.712029  1
  O  O777  1  0.090068  0.169464  0.842017  1
  O  O778  1  0.411065  0.668586  0.841914  1
  O  O779  1  0.412681  0.329154  0.841801  1
  O  O780  1  0.089841  0.829929  0.842049  1
  O  O781  1  0.098175  0.592188  0.778059  1
  O  O782  1  0.099290  0.092066  0.819617  1
  O  O783  1  0.404383  0.091941  0.778321  1
  O  O784  1  0.405278  0.592667  0.819354  1
  O  O785  1  0.405403  0.407748  0.819434  1
  O  O786  1  0.404463  0.907217  0.778424  1
  O  O787  1  0.097535  0.907681  0.819689  1
  O  O788  1  0.096123  0.407651  0.778040  1
  O  O789  1  0.151179  0.244295  0.823053  1
  O  O790  1  0.350667  0.742790  0.822858  1
  O  O791  1  0.351306  0.256961  0.822864  1
  O  O792  1  0.150873  0.756705  0.822903  1
  O  O793  1  0.051083  0.750942  0.776741  1
  O  O794  1  0.051294  0.250019  0.821026  1
  O  O795  1  0.450539  0.251235  0.777324  1
  O  O796  1  0.450593  0.752454  0.821113  1
  O  O797  1  0.450858  0.247957  0.820530  1
  O  O798  1  0.450923  0.748381  0.776565  1
  O  O799  1  0.050898  0.748491  0.821152  1
  O  O800  1  0.051111  0.247302  0.776571  1
  O  O801  1  0.004011  0.749282  0.798950  1
  O  O802  1  0.004348  0.250214  0.798800  1
  O  O803  1  0.497449  0.749537  0.798852  1
  O  O804  1  0.002443  0.901536  0.785298  1
  O  O805  1  0.192405  0.400974  0.813193  1
  O  O806  1  0.192988  0.900827  0.784471  1
  O  O807  1  0.309415  0.900573  0.813011  1
  O  O808  1  0.309882  0.400508  0.784792  1
  O  O809  1  0.310188  0.598843  0.784763  1
  O  O810  1  0.309714  0.099131  0.813066  1
  O  O811  1  0.191934  0.099780  0.784611  1
  O  O812  1  0.191328  0.599616  0.813013  1
  O  O813  1  0.145195  0.497783  0.795881  1
  O  O814  1  0.142544  0.998212  0.801102  1
  O  O815  1  0.342832  0.000000  0.793889  1
  O  O816  1  0.344629  0.499679  0.803803  1
  O  O817  1  0.245681  0.500382  0.797636  1
  O  O818  1  0.243958  0.000000  0.800506  1
  O  O819  1  0.182050  0.750543  0.798791  1
  O  O820  1  0.182256  0.250004  0.798973  1
  O  O821  1  0.319651  0.249719  0.798909  1
  O  O822  1  0.319569  0.750002  0.798838  1
  O  O823  1  0.250746  0.749590  0.816631  1
  O  O824  1  0.250869  0.250100  0.781106  1
  O  O825  1  0.251185  0.250164  0.816782  1
  O  O826  1  0.250934  0.748977  0.780990  1
  O  O827  1  0.044182  0.501425  0.794763  1
  O  O828  1  0.042166  0.001022  0.803558  1
  O  O829  1  0.442376  0.000000  0.797555  1
  O  O830  1  0.444238  0.499823  0.800320  1
  O  O831  1  0.002715  0.401299  0.812675  1
  O  O832  1  0.001671  0.597985  0.812799  1
  O  O833  1  0.001647  0.097815  0.785184  1
  O  O834  1  0.587836  0.671697  0.841797  1
  O  O835  1  0.913156  0.170371  0.841493  1
  O  O836  1  0.912777  0.829913  0.841590  1
  O  O837  1  0.589314  0.330494  0.841923  1
  O  O838  1  0.597231  0.092616  0.778213  1
  O  O839  1  0.597232  0.591534  0.819674  1
  O  O840  1  0.905805  0.592570  0.778643  1
  O  O841  1  0.904799  0.092432  0.819115  1
  O  O842  1  0.904469  0.907624  0.819204  1
  O  O843  1  0.905147  0.407561  0.778555  1
  O  O844  1  0.595742  0.407091  0.819526  1
  O  O845  1  0.598696  0.908300  0.778179  1
  O  O846  1  0.650256  0.743222  0.822883  1
  O  O847  1  0.851298  0.243273  0.822748  1
  O  O848  1  0.850751  0.757034  0.822846  1
  O  O849  1  0.650891  0.257677  0.822920  1
  O  O850  1  0.550823  0.251830  0.776791  1
  O  O851  1  0.550845  0.750648  0.820277  1
  O  O852  1  0.950758  0.752614  0.777506  1
  O  O853  1  0.950992  0.251629  0.820224  1
  O  O854  1  0.950470  0.748282  0.820351  1
  O  O855  1  0.950734  0.247902  0.777412  1
  O  O856  1  0.551118  0.246660  0.820980  1
  O  O857  1  0.551187  0.750006  0.777497  1
  O  O858  1  0.503084  0.250589  0.798906  1
  O  O859  1  0.501168  0.401857  0.785049  1
  O  O860  1  0.691857  0.900707  0.813217  1
  O  O861  1  0.691681  0.400386  0.784604  1
  O  O862  1  0.809789  0.400921  0.813022  1
  O  O863  1  0.809057  0.900423  0.784694  1
  O  O864  1  0.809214  0.099135  0.784682  1
  O  O865  1  0.809332  0.599402  0.813077  1
  O  O866  1  0.691338  0.599152  0.784658  1
  O  O867  1  0.692439  0.099751  0.813295  1
  O  O868  1  0.642336  0.001428  0.796718  1
  O  O869  1  0.645369  0.498812  0.801929  1
  O  O870  1  0.844700  0.500517  0.794127  1
  O  O871  1  0.842848  -0.000000  0.803742  1
  O  O872  1  0.743778  0.000000  0.797303  1
  O  O873  1  0.745645  0.499852  0.800038  1
  O  O874  1  0.682207  0.249686  0.798889  1
  O  O875  1  0.681888  0.750267  0.798869  1
  O  O876  1  0.818959  0.750150  0.798931  1
  O  O877  1  0.819265  0.249935  0.798857  1
  O  O878  1  0.750899  0.250579  0.816753  1
  O  O879  1  0.750660  0.749181  0.781029  1
  O  O880  1  0.750372  0.749916  0.816775  1
  O  O881  1  0.750781  0.250160  0.781000  1
  O  O882  1  0.541980  0.998862  0.794337  1
  O  O883  1  0.544209  0.501452  0.802760  1
  O  O884  1  0.944401  0.499089  0.797660  1
  O  O885  1  0.942637  0.000000  0.800000  1
  O  O886  1  0.501137  0.097820  0.812485  1
  O  O887  1  0.500627  0.598586  0.784962  1
  O  O888  1  0.500588  0.901473  0.812534  1
  Si  Si889  1  0.401745  0.499804  0.089965  1
  Si  Si890  1  0.401729  0.000000  0.113790  1
  Si  Si891  1  0.098352  -0.000000  0.089964  1
  Si  Si892  1  0.304859  0.000000  0.095183  1
  Si  Si893  1  0.098325  0.500112  0.113795  1
  Si  Si894  1  0.096416  0.192495  0.074339  1
  Si  Si895  1  0.403113  0.692005  0.074277  1
  Si  Si896  1  0.403593  0.307516  0.074301  1
  Si  Si897  1  0.096300  0.807753  0.074327  1
  Si  Si898  1  0.192815  0.213678  0.116431  1
  Si  Si899  1  0.192723  0.713669  0.087323  1
  Si  Si900  1  0.306965  0.713831  0.116379  1
  Si  Si901  1  0.307081  0.213904  0.087367  1
  Si  Si902  1  0.306825  0.786420  0.087323  1
  Si  Si903  1  0.306926  0.286375  0.116429  1
  Si  Si904  1  0.192895  0.286294  0.087358  1
  Si  Si905  1  0.192798  0.786318  0.116395  1
  Si  Si906  1  0.194963  -0.000000  0.108595  1
  Si  Si907  1  0.194923  0.500029  0.095157  1
  Si  Si908  1  0.304844  0.500031  0.108556  1
  Si  Si909  1  -0.000000  0.500049  0.095761  1
  Si  Si910  1  -0.000000  -0.000000  0.107994  1
  Si  Si911  1  0.596906  0.692587  0.074190  1
  Si  Si912  1  0.903059  0.192106  0.073957  1
  Si  Si913  1  0.902951  0.807980  0.073975  1
  Si  Si914  1  0.597499  0.308200  0.074144  1
  Si  Si915  1  0.693313  0.713746  0.116425  1
  Si  Si916  1  0.693431  0.213595  0.087341  1
  Si  Si917  1  0.807476  0.213639  0.116393  1
  Si  Si918  1  0.807388  0.713634  0.087365  1
  Si  Si919  1  0.807555  0.286564  0.087355  1
  Si  Si920  1  0.807463  0.786554  0.116407  1
  Si  Si921  1  0.693179  0.786182  0.087379  1
  Si  Si922  1  0.693297  0.286365  0.116371  1
  Si  Si923  1  0.695294  0.500136  0.108513  1
  Si  Si924  1  0.695324  0.000000  0.095238  1
  Si  Si925  1  0.805479  0.000000  0.108497  1
  Si  Si926  1  0.805467  0.500086  0.095265  1
  Si  Si927  1  0.598460  0.500297  0.089893  1
  Si  Si928  1  0.598524  0.000000  0.113866  1
  Si  Si929  1  0.901615  0.000000  0.089703  1
  Si  Si930  1  0.901604  0.500055  0.114059  1
  Si  Si931  1  -0.000000  0.211876  0.116481  1
  Si  Si932  1  0.000000  0.711875  0.087280  1
  Si  Si933  1  0.500859  0.212140  0.087276  1
  Si  Si934  1  0.500535  0.711967  0.116474  1
  Si  Si935  1  0.500451  0.287941  0.116475  1
  Si  Si936  1  0.000000  0.788211  0.116454  1
  Si  Si937  1  -0.000000  0.288151  0.087304  1
  Si  Si938  1  0.500121  0.788169  0.087289  1
  Si  Si939  1  0.500253  0.000000  0.095704  1
  Si  Si940  1  0.500223  0.499938  0.108069  1
  Si  Si941  1  0.061622  0.388951  0.186649  1
  Si  Si942  1  0.060159  0.389118  0.156244  1
  Si  Si943  1  0.439133  0.889895  0.186669  1
  Si  Si944  1  0.439383  0.889610  0.156251  1
  Si  Si945  1  0.098240  0.692207  0.213432  1
  Si  Si946  1  0.096314  0.692549  0.129411  1
  Si  Si947  1  0.404090  0.192103  0.213710  1
  Si  Si948  1  0.403251  0.192281  0.129494  1
  Si  Si949  1  0.403409  0.807783  0.129433  1
  Si  Si950  1  0.403624  0.808209  0.213502  1
  Si  Si951  1  0.096406  0.307778  0.129434  1
  Si  Si952  1  0.097995  0.307675  0.213419  1
  Si  Si953  1  0.061625  0.611309  0.186657  1
  Si  Si954  1  0.060185  0.611513  0.156250  1
  Si  Si955  1  0.439808  0.112161  0.186763  1
  Si  Si956  1  0.439876  0.111957  0.156334  1
  Si  Si957  1  0.560516  0.888216  0.186853  1
  Si  Si958  1  0.560778  0.888323  0.156436  1
  Si  Si959  1  0.597758  0.192334  0.213516  1
  Si  Si960  1  0.597191  0.192219  0.129562  1
  Si  Si961  1  0.904524  0.692453  0.213963  1
  Si  Si962  1  0.902981  0.692094  0.129802  1
  Si  Si963  1  0.903044  0.307947  0.129787  1
  Si  Si964  1  0.904362  0.307673  0.213876  1
  Si  Si965  1  0.597241  0.807839  0.129620  1
  Si  Si966  1  0.597589  0.807906  0.213666  1
  Si  Si967  1  0.561192  0.110604  0.186775  1
  Si  Si968  1  0.561272  0.110659  0.156366  1
  Si  Si969  1  0.940242  0.611409  0.187079  1
  Si  Si970  1  0.938779  0.611548  0.156669  1
  Si  Si971  1  0.938752  0.389244  0.156624  1
  Si  Si972  1  0.940236  0.389059  0.187034  1
  Si  Si973  1  0.496646  -0.000000  0.247148  1
  Si  Si974  1  0.002230  0.287767  0.255801  1
  Si  Si975  1  0.001980  0.788137  0.226809  1
  Si  Si976  1  0.001791  0.211229  0.226670  1
  Si  Si977  1  0.497644  0.500330  0.235153  1
  Si  Si978  1  0.098628  0.191773  0.269125  1
  Si  Si979  1  0.403603  0.691901  0.269005  1
  Si  Si980  1  0.404466  0.307672  0.268866  1
  Si  Si981  1  0.098095  0.807755  0.269135  1
  Si  Si982  1  0.061687  0.111153  0.295893  1
  Si  Si983  1  0.439084  0.610394  0.295857  1
  Si  Si984  1  0.439861  0.388134  0.295810  1
  Si  Si985  1  0.061559  0.888815  0.295906  1
  Si  Si986  1  0.193633  0.713749  0.255712  1
  Si  Si987  1  0.193802  0.214002  0.226810  1
  Si  Si988  1  0.308125  0.213349  0.255845  1
  Si  Si989  1  0.308021  0.712982  0.226724  1
  Si  Si990  1  0.307939  0.286374  0.226791  1
  Si  Si991  1  0.307753  0.786373  0.255763  1
  Si  Si992  1  0.194106  0.786537  0.226647  1
  Si  Si993  1  0.194191  0.286746  0.255885  1
  Si  Si994  1  0.193075  0.500005  0.247908  1
  Si  Si995  1  0.192469  -0.000000  0.234533  1
  Si  Si996  1  0.301889  0.000000  0.247998  1
  Si  Si997  1  0.303093  0.499758  0.234660  1
  Si  Si998  1  0.096193  0.499919  0.229137  1
  Si  Si999  1  0.095737  0.000000  0.253370  1
  Si  Si1000  1  0.397872  0.000000  0.229345  1
  Si  Si1001  1  0.399424  0.499996  0.253215  1
  Si  Si1002  1  0.001598  0.711538  0.255940  1
  Si  Si1003  1  0.501208  0.288339  0.226707  1
  Si  Si1004  1  0.500243  0.712158  0.226645  1
  Si  Si1005  1  0.501348  0.211157  0.255818  1
  Si  Si1006  1  0.998347  0.499814  0.247395  1
  Si  Si1007  1  0.597142  0.692298  0.268880  1
  Si  Si1008  1  0.904539  0.192290  0.268600  1
  Si  Si1009  1  0.904053  0.807823  0.268704  1
  Si  Si1010  1  0.597637  0.307504  0.269037  1
  Si  Si1011  1  0.560471  0.612211  0.295731  1
  Si  Si1012  1  0.940305  0.111393  0.295483  1
  Si  Si1013  1  0.940173  0.889026  0.295535  1
  Si  Si1014  1  0.561252  0.389830  0.295762  1
  Si  Si1015  1  0.693901  0.214039  0.255861  1
  Si  Si1016  1  0.693550  0.713300  0.226755  1
  Si  Si1017  1  0.807417  0.713568  0.255855  1
  Si  Si1018  1  0.807723  0.213343  0.226728  1
  Si  Si1019  1  0.807562  0.786198  0.226773  1
  Si  Si1020  1  0.807912  0.286762  0.255781  1
  Si  Si1021  1  0.693726  0.286191  0.226744  1
  Si  Si1022  1  0.693417  0.786469  0.255820  1
  Si  Si1023  1  0.692286  -0.000000  0.248072  1
  Si  Si1024  1  0.692948  0.499698  0.234603  1
  Si  Si1025  1  0.802804  0.500210  0.247971  1
  Si  Si1026  1  0.801571  -0.000000  0.234509  1
  Si  Si1027  1  0.595430  -0.000000  0.229281  1
  Si  Si1028  1  0.595890  0.499686  0.253302  1
  Si  Si1029  1  0.899556  0.499916  0.229560  1
  Si  Si1030  1  0.898045  0.000000  0.252998  1
  Si  Si1031  1  0.997333  0.000000  0.235391  1
  Si  Si1032  1  0.500032  0.788030  0.255803  1
  Si  Si1033  1  0.401745  0.499804  0.368766  1
  Si  Si1034  1  0.401729  -0.000000  0.392591  1
  Si  Si1035  1  0.098352  -0.000000  0.368765  1
  Si  Si1036  1  0.304859  -0.000000  0.373984  1
  Si  Si1037  1  0.098325  0.500112  0.392596  1
  Si  Si1038  1  0.096416  0.192495  0.353140  1
  Si  Si1039  1  0.403113  0.692005  0.353078  1
  Si  Si1040  1  0.403593  0.307516  0.353102  1
  Si  Si1041  1  0.096300  0.807753  0.353128  1
  Si  Si1042  1  0.060265  0.111470  0.326301  1
  Si  Si1043  1  0.439350  0.610507  0.326275  1
  Si  Si1044  1  0.439899  0.388161  0.326242  1
  Si  Si1045  1  0.060097  0.889080  0.326315  1
  Si  Si1046  1  0.192815  0.213678  0.395232  1
  Si  Si1047  1  0.192723  0.713669  0.366124  1
  Si  Si1048  1  0.306965  0.713831  0.395180  1
  Si  Si1049  1  0.307081  0.213904  0.366168  1
  Si  Si1050  1  0.306825  0.786420  0.366124  1
  Si  Si1051  1  0.306926  0.286375  0.395230  1
  Si  Si1052  1  0.192895  0.286294  0.366158  1
  Si  Si1053  1  0.192798  0.786318  0.395196  1
  Si  Si1054  1  0.194963  0.000000  0.387396  1
  Si  Si1055  1  0.194923  0.500029  0.373958  1
  Si  Si1056  1  0.304844  0.500031  0.387357  1
  Si  Si1057  1  0.000000  0.500049  0.374562  1
  Si  Si1058  1  0.000000  0.000000  0.386795  1
  Si  Si1059  1  0.596906  0.692587  0.352991  1
  Si  Si1060  1  0.903059  0.192106  0.352758  1
  Si  Si1061  1  0.902951  0.807980  0.352776  1
  Si  Si1062  1  0.597499  0.308200  0.352945  1
  Si  Si1063  1  0.560746  0.611942  0.326149  1
  Si  Si1064  1  0.938854  0.111633  0.325891  1
  Si  Si1065  1  0.938688  0.889318  0.325946  1
  Si  Si1066  1  0.561293  0.389607  0.326166  1
  Si  Si1067  1  0.693313  0.713746  0.395226  1
  Si  Si1068  1  0.693431  0.213595  0.366142  1
  Si  Si1069  1  0.807476  0.213639  0.395194  1
  Si  Si1070  1  0.807388  0.713634  0.366166  1
  Si  Si1071  1  0.807555  0.286564  0.366156  1
  Si  Si1072  1  0.807463  0.786554  0.395208  1
  Si  Si1073  1  0.693179  0.786182  0.366180  1
  Si  Si1074  1  0.693297  0.286365  0.395172  1
  Si  Si1075  1  0.695294  0.500136  0.387314  1
  Si  Si1076  1  0.695324  -0.000000  0.374039  1
  Si  Si1077  1  0.805479  0.000000  0.387298  1
  Si  Si1078  1  0.805467  0.500086  0.374066  1
  Si  Si1079  1  0.598460  0.500297  0.368694  1
  Si  Si1080  1  0.598524  0.000000  0.392667  1
  Si  Si1081  1  0.901615  -0.000000  0.368504  1
  Si  Si1082  1  0.901604  0.500055  0.392860  1
  Si  Si1083  1  -0.000000  0.211876  0.395282  1
  Si  Si1084  1  -0.000000  0.711875  0.366081  1
  Si  Si1085  1  0.500859  0.212140  0.366077  1
  Si  Si1086  1  0.500535  0.711967  0.395275  1
  Si  Si1087  1  0.500451  0.287941  0.395276  1
  Si  Si1088  1  0.000000  0.788211  0.395255  1
  Si  Si1089  1  -0.000000  0.288151  0.366105  1
  Si  Si1090  1  0.500121  0.788169  0.366090  1
  Si  Si1091  1  0.500253  -0.000000  0.374505  1
  Si  Si1092  1  0.500223  0.499938  0.386870  1
  Si  Si1093  1  0.061622  0.388951  0.465450  1
  Si  Si1094  1  0.060159  0.389118  0.435045  1
  Si  Si1095  1  0.439133  0.889895  0.465470  1
  Si  Si1096  1  0.439383  0.889610  0.435052  1
  Si  Si1097  1  0.098240  0.692207  0.492233  1
  Si  Si1098  1  0.096314  0.692549  0.408212  1
  Si  Si1099  1  0.404090  0.192103  0.492511  1
  Si  Si1100  1  0.403251  0.192281  0.408295  1
  Si  Si1101  1  0.403409  0.807783  0.408234  1
  Si  Si1102  1  0.403624  0.808209  0.492303  1
  Si  Si1103  1  0.096406  0.307778  0.408235  1
  Si  Si1104  1  0.097995  0.307675  0.492220  1
  Si  Si1105  1  0.061625  0.611309  0.465458  1
  Si  Si1106  1  0.060185  0.611513  0.435051  1
  Si  Si1107  1  0.439808  0.112161  0.465564  1
  Si  Si1108  1  0.439876  0.111957  0.435135  1
  Si  Si1109  1  0.560516  0.888216  0.465654  1
  Si  Si1110  1  0.560778  0.888323  0.435237  1
  Si  Si1111  1  0.597758  0.192334  0.492317  1
  Si  Si1112  1  0.597191  0.192219  0.408363  1
  Si  Si1113  1  0.904524  0.692453  0.492764  1
  Si  Si1114  1  0.902981  0.692094  0.408603  1
  Si  Si1115  1  0.903044  0.307947  0.408588  1
  Si  Si1116  1  0.904362  0.307673  0.492677  1
  Si  Si1117  1  0.597241  0.807839  0.408421  1
  Si  Si1118  1  0.597589  0.807906  0.492466  1
  Si  Si1119  1  0.561192  0.110604  0.465576  1
  Si  Si1120  1  0.561272  0.110659  0.435167  1
  Si  Si1121  1  0.940242  0.611409  0.465880  1
  Si  Si1122  1  0.938779  0.611548  0.435470  1
  Si  Si1123  1  0.938752  0.389244  0.435425  1
  Si  Si1124  1  0.940236  0.389059  0.465835  1
  Si  Si1125  1  0.496646  -0.000000  0.525949  1
  Si  Si1126  1  0.002230  0.287767  0.534602  1
  Si  Si1127  1  0.001980  0.788137  0.505610  1
  Si  Si1128  1  0.001791  0.211229  0.505471  1
  Si  Si1129  1  0.497644  0.500330  0.513954  1
  Si  Si1130  1  0.098628  0.191773  0.547926  1
  Si  Si1131  1  0.403603  0.691901  0.547806  1
  Si  Si1132  1  0.404466  0.307672  0.547667  1
  Si  Si1133  1  0.098095  0.807755  0.547936  1
  Si  Si1134  1  0.061687  0.111153  0.574694  1
  Si  Si1135  1  0.439084  0.610394  0.574658  1
  Si  Si1136  1  0.439861  0.388134  0.574611  1
  Si  Si1137  1  0.061559  0.888815  0.574707  1
  Si  Si1138  1  0.193633  0.713749  0.534513  1
  Si  Si1139  1  0.193802  0.214002  0.505611  1
  Si  Si1140  1  0.308125  0.213349  0.534646  1
  Si  Si1141  1  0.308021  0.712982  0.505525  1
  Si  Si1142  1  0.307939  0.286374  0.505592  1
  Si  Si1143  1  0.307753  0.786373  0.534564  1
  Si  Si1144  1  0.194106  0.786537  0.505448  1
  Si  Si1145  1  0.194191  0.286746  0.534686  1
  Si  Si1146  1  0.193075  0.500005  0.526709  1
  Si  Si1147  1  0.192469  -0.000000  0.513334  1
  Si  Si1148  1  0.301889  0.000000  0.526799  1
  Si  Si1149  1  0.303093  0.499758  0.513461  1
  Si  Si1150  1  0.096193  0.499919  0.507938  1
  Si  Si1151  1  0.095737  0.000000  0.532171  1
  Si  Si1152  1  0.397872  0.000000  0.508146  1
  Si  Si1153  1  0.399424  0.499996  0.532016  1
  Si  Si1154  1  0.001598  0.711538  0.534741  1
  Si  Si1155  1  0.501208  0.288339  0.505508  1
  Si  Si1156  1  0.500243  0.712158  0.505446  1
  Si  Si1157  1  0.501348  0.211157  0.534619  1
  Si  Si1158  1  0.998347  0.499814  0.526196  1
  Si  Si1159  1  0.597142  0.692298  0.547681  1
  Si  Si1160  1  0.904539  0.192290  0.547401  1
  Si  Si1161  1  0.904053  0.807823  0.547505  1
  Si  Si1162  1  0.597637  0.307504  0.547838  1
  Si  Si1163  1  0.560471  0.612211  0.574532  1
  Si  Si1164  1  0.940305  0.111393  0.574284  1
  Si  Si1165  1  0.940173  0.889026  0.574336  1
  Si  Si1166  1  0.561252  0.389830  0.574562  1
  Si  Si1167  1  0.693901  0.214039  0.534662  1
  Si  Si1168  1  0.693550  0.713300  0.505556  1
  Si  Si1169  1  0.807417  0.713568  0.534656  1
  Si  Si1170  1  0.807723  0.213343  0.505529  1
  Si  Si1171  1  0.807562  0.786198  0.505574  1
  Si  Si1172  1  0.807912  0.286762  0.534582  1
  Si  Si1173  1  0.693726  0.286191  0.505545  1
  Si  Si1174  1  0.693417  0.786469  0.534621  1
  Si  Si1175  1  0.692286  0.000000  0.526873  1
  Si  Si1176  1  0.692948  0.499698  0.513404  1
  Si  Si1177  1  0.802804  0.500210  0.526772  1
  Si  Si1178  1  0.801571  -0.000000  0.513310  1
  Si  Si1179  1  0.595430  -0.000000  0.508082  1
  Si  Si1180  1  0.595890  0.499686  0.532102  1
  Si  Si1181  1  0.899556  0.499916  0.508361  1
  Si  Si1182  1  0.898045  0.000000  0.531799  1
  Si  Si1183  1  0.997333  0.000000  0.514191  1
  Si  Si1184  1  0.500032  0.788030  0.534604  1
  Si  Si1185  1  0.401745  0.499804  0.647567  1
  Si  Si1186  1  0.401729  0.000000  0.671392  1
  Si  Si1187  1  0.098352  0.000000  0.647566  1
  Si  Si1188  1  0.304859  0.000000  0.652785  1
  Si  Si1189  1  0.098325  0.500112  0.671396  1
  Si  Si1190  1  0.096416  0.192495  0.631941  1
  Si  Si1191  1  0.403113  0.692005  0.631879  1
  Si  Si1192  1  0.403593  0.307516  0.631903  1
  Si  Si1193  1  0.096300  0.807753  0.631929  1
  Si  Si1194  1  0.060265  0.111470  0.605102  1
  Si  Si1195  1  0.439350  0.610507  0.605076  1
  Si  Si1196  1  0.439899  0.388161  0.605043  1
  Si  Si1197  1  0.060097  0.889080  0.605116  1
  Si  Si1198  1  0.192815  0.213678  0.674033  1
  Si  Si1199  1  0.192723  0.713669  0.644925  1
  Si  Si1200  1  0.306965  0.713831  0.673981  1
  Si  Si1201  1  0.307081  0.213904  0.644969  1
  Si  Si1202  1  0.306825  0.786420  0.644925  1
  Si  Si1203  1  0.306926  0.286375  0.674031  1
  Si  Si1204  1  0.192895  0.286294  0.644959  1
  Si  Si1205  1  0.192798  0.786318  0.673997  1
  Si  Si1206  1  0.194963  -0.000000  0.666197  1
  Si  Si1207  1  0.194923  0.500029  0.652759  1
  Si  Si1208  1  0.304844  0.500031  0.666158  1
  Si  Si1209  1  -0.000000  0.500049  0.653363  1
  Si  Si1210  1  0.000000  0.000000  0.665596  1
  Si  Si1211  1  0.596906  0.692587  0.631792  1
  Si  Si1212  1  0.903059  0.192106  0.631559  1
  Si  Si1213  1  0.902951  0.807980  0.631577  1
  Si  Si1214  1  0.597499  0.308200  0.631746  1
  Si  Si1215  1  0.560746  0.611942  0.604950  1
  Si  Si1216  1  0.938854  0.111633  0.604692  1
  Si  Si1217  1  0.938688  0.889318  0.604747  1
  Si  Si1218  1  0.561293  0.389607  0.604967  1
  Si  Si1219  1  0.693313  0.713746  0.674027  1
  Si  Si1220  1  0.693431  0.213595  0.644943  1
  Si  Si1221  1  0.807476  0.213639  0.673995  1
  Si  Si1222  1  0.807388  0.713634  0.644967  1
  Si  Si1223  1  0.807555  0.286564  0.644957  1
  Si  Si1224  1  0.807463  0.786554  0.674009  1
  Si  Si1225  1  0.693179  0.786182  0.644981  1
  Si  Si1226  1  0.693297  0.286365  0.673973  1
  Si  Si1227  1  0.695294  0.500136  0.666115  1
  Si  Si1228  1  0.695324  0.000000  0.652840  1
  Si  Si1229  1  0.805479  0.000000  0.666099  1
  Si  Si1230  1  0.805467  0.500086  0.652867  1
  Si  Si1231  1  0.598460  0.500297  0.647495  1
  Si  Si1232  1  0.598524  0.000000  0.671468  1
  Si  Si1233  1  0.901615  0.000000  0.647305  1
  Si  Si1234  1  0.901604  0.500055  0.671661  1
  Si  Si1235  1  0.000000  0.211876  0.674083  1
  Si  Si1236  1  0.000000  0.711875  0.644882  1
  Si  Si1237  1  0.500859  0.212140  0.644878  1
  Si  Si1238  1  0.500535  0.711967  0.674076  1
  Si  Si1239  1  0.500451  0.287941  0.674077  1
  Si  Si1240  1  0.000000  0.788211  0.674056  1
  Si  Si1241  1  -0.000000  0.288151  0.644906  1
  Si  Si1242  1  0.500121  0.788169  0.644891  1
  Si  Si1243  1  0.500253  -0.000000  0.653306  1
  Si  Si1244  1  0.500223  0.499938  0.665671  1
  Si  Si1245  1  0.061622  0.388951  0.744251  1
  Si  Si1246  1  0.060159  0.389118  0.713846  1
  Si  Si1247  1  0.439133  0.889895  0.744271  1
  Si  Si1248  1  0.439383  0.889610  0.713853  1
  Si  Si1249  1  0.098240  0.692207  0.771034  1
  Si  Si1250  1  0.096314  0.692549  0.687013  1
  Si  Si1251  1  0.404090  0.192103  0.771311  1
  Si  Si1252  1  0.403251  0.192281  0.687096  1
  Si  Si1253  1  0.403409  0.807783  0.687035  1
  Si  Si1254  1  0.403624  0.808209  0.771104  1
  Si  Si1255  1  0.096406  0.307778  0.687036  1
  Si  Si1256  1  0.097995  0.307675  0.771021  1
  Si  Si1257  1  0.061625  0.611309  0.744259  1
  Si  Si1258  1  0.060185  0.611513  0.713852  1
  Si  Si1259  1  0.439808  0.112161  0.744365  1
  Si  Si1260  1  0.439876  0.111957  0.713936  1
  Si  Si1261  1  0.560516  0.888216  0.744455  1
  Si  Si1262  1  0.560778  0.888323  0.714038  1
  Si  Si1263  1  0.597758  0.192334  0.771118  1
  Si  Si1264  1  0.597191  0.192219  0.687164  1
  Si  Si1265  1  0.904524  0.692453  0.771565  1
  Si  Si1266  1  0.902981  0.692094  0.687404  1
  Si  Si1267  1  0.903044  0.307947  0.687389  1
  Si  Si1268  1  0.904362  0.307673  0.771478  1
  Si  Si1269  1  0.597241  0.807839  0.687222  1
  Si  Si1270  1  0.597589  0.807906  0.771267  1
  Si  Si1271  1  0.561192  0.110604  0.744377  1
  Si  Si1272  1  0.561272  0.110659  0.713968  1
  Si  Si1273  1  0.940242  0.611409  0.744681  1
  Si  Si1274  1  0.938779  0.611548  0.714270  1
  Si  Si1275  1  0.938752  0.389244  0.714226  1
  Si  Si1276  1  0.940236  0.389059  0.744636  1
  Si  Si1277  1  0.496646  0.000000  0.804750  1
  Si  Si1278  1  0.002230  0.287767  0.813403  1
  Si  Si1279  1  0.001980  0.788137  0.784411  1
  Si  Si1280  1  0.001791  0.211229  0.784272  1
  Si  Si1281  1  0.497644  0.500330  0.792755  1
  Si  Si1282  1  0.098628  0.191773  0.826727  1
  Si  Si1283  1  0.403603  0.691901  0.826607  1
  Si  Si1284  1  0.404466  0.307672  0.826468  1
  Si  Si1285  1  0.098095  0.807755  0.826737  1
  Si  Si1286  1  0.193633  0.713749  0.813314  1
  Si  Si1287  1  0.193802  0.214002  0.784412  1
  Si  Si1288  1  0.308125  0.213349  0.813447  1
  Si  Si1289  1  0.308021  0.712982  0.784326  1
  Si  Si1290  1  0.307939  0.286374  0.784393  1
  Si  Si1291  1  0.307753  0.786373  0.813365  1
  Si  Si1292  1  0.194106  0.786537  0.784249  1
  Si  Si1293  1  0.194191  0.286746  0.813487  1
  Si  Si1294  1  0.193075  0.500005  0.805510  1
  Si  Si1295  1  0.192469  0.000000  0.792135  1
  Si  Si1296  1  0.301889  0.000000  0.805600  1
  Si  Si1297  1  0.303093  0.499758  0.792262  1
  Si  Si1298  1  0.096193  0.499919  0.786739  1
  Si  Si1299  1  0.095737  0.000000  0.810972  1
  Si  Si1300  1  0.397872  0.000000  0.786947  1
  Si  Si1301  1  0.399424  0.499996  0.810817  1
  Si  Si1302  1  0.001598  0.711538  0.813541  1
  Si  Si1303  1  0.501208  0.288339  0.784309  1
  Si  Si1304  1  0.500243  0.712158  0.784247  1
  Si  Si1305  1  0.501348  0.211157  0.813420  1
  Si  Si1306  1  0.998347  0.499814  0.804997  1
  Si  Si1307  1  0.597142  0.692298  0.826482  1
  Si  Si1308  1  0.904539  0.192290  0.826202  1
  Si  Si1309  1  0.904053  0.807823  0.826306  1
  Si  Si1310  1  0.597637  0.307504  0.826639  1
  Si  Si1311  1  0.693901  0.214039  0.813463  1
  Si  Si1312  1  0.693550  0.713300  0.784357  1
  Si  Si1313  1  0.807417  0.713568  0.813457  1
  Si  Si1314  1  0.807723  0.213343  0.784330  1
  Si  Si1315  1  0.807562  0.786198  0.784375  1
  Si  Si1316  1  0.807912  0.286762  0.813383  1
  Si  Si1317  1  0.693726  0.286191  0.784346  1
  Si  Si1318  1  0.693417  0.786469  0.813422  1
  Si  Si1319  1  0.692286  -0.000000  0.805674  1
  Si  Si1320  1  0.692948  0.499698  0.792205  1
  Si  Si1321  1  0.802804  0.500210  0.805573  1
  Si  Si1322  1  0.801571  -0.000000  0.792111  1
  Si  Si1323  1  0.595430  -0.000000  0.786883  1
  Si  Si1324  1  0.595890  0.499686  0.810903  1
  Si  Si1325  1  0.899556  0.499916  0.787162  1
  Si  Si1326  1  0.898045  -0.000000  0.810600  1
  Si  Si1327  1  0.997333  -0.000000  0.792992  1
  Si  Si1328  1  0.500032  0.788030  0.813405  1
  H  H1329  1  0.087549  0.170949  0.050097  1
  H  H1330  1  0.411670  0.669817  0.050037  1
  H  H1331  1  0.412361  0.329144  0.050051  1
  H  H1332  1  0.087407  0.829434  0.050092  1
  H  H1333  1  0.588660  0.670468  0.049941  1
  H  H1334  1  0.910792  0.170094  0.049670  1
  H  H1335  1  0.910641  0.830532  0.049707  1
  H  H1336  1  0.589391  0.330694  0.049902  1
  H  H1337  1  0.090068  0.169464  0.850957  1
  H  H1338  1  0.411065  0.668586  0.850855  1
  H  H1339  1  0.412681  0.329154  0.850742  1
  H  H1340  1  0.089841  0.829929  0.850989  1
  H  H1341  1  0.587836  0.671697  0.850738  1
  H  H1342  1  0.913156  0.170371  0.850434  1
  H  H1343  1  0.912777  0.829913  0.850530  1
  H  H1344  1  0.589314  0.330494  0.850864  1
