# generated using pymatgen
data_Si89(HO45)4
_symmetry_space_group_name_H-M   'P 1'
_cell_length_a   26.79739289
_cell_length_b   12.91472158
_cell_length_c   94.58431621
_cell_angle_alpha   90.00000000
_cell_angle_beta   90.00000000
_cell_angle_gamma   90.00000000
_symmetry_Int_Tables_number   1
_chemical_formula_structural   Si89(HO45)4
_chemical_formula_sum   'Si356 H16 O720'
_cell_volume   32733.8222757
_cell_formula_units_Z   4
loop_
 _symmetry_equiv_pos_site_id
 _symmetry_equiv_pos_as_xyz
  1  'x, y, z'
loop_
 _atom_site_type_symbol
 _atom_site_label
 _atom_site_symmetry_multiplicity
 _atom_site_fract_x
 _atom_site_fract_y
 _atom_site_fract_z
 _atom_site_occupancy
  O  O1  1  0.171724  0.500053  0.144463  1
  O  O2  1  0.068335  0.000000  0.115172  1
  O  O3  1  0.238131  0.641926  0.144567  1
  O  O4  1  0.067961  0.858162  0.096354  1
  O  O5  1  0.238139  0.358148  0.144567  1
  O  O6  1  0.067960  0.141927  0.096356  1
  O  O7  1  0.141931  0.692338  0.139961  1
  O  O8  1  0.084214  0.807742  0.123613  1
  O  O9  1  0.141925  0.307726  0.139964  1
  O  O10  1  0.084223  0.192347  0.123612  1
  O  O11  1  0.091915  0.826879  0.068548  1
  O  O12  1  0.091914  0.173221  0.068549  1
  O  O13  1  0.301754  0.500060  0.145599  1
  O  O14  1  0.064335  0.000000  0.078329  1
  O  O15  1  0.047822  0.669080  0.140764  1
  O  O16  1  0.081400  0.831009  0.150273  1
  O  O17  1  0.047819  0.331024  0.140762  1
  O  O18  1  0.081397  0.169065  0.150274  1
  O  O19  1  0.568327  0.500055  0.070821  1
  O  O20  1  0.431628  0.500048  0.070818  1
  O  O21  1  0.663692  0.326880  0.137783  1
  O  O22  1  0.499984  0.631494  0.071218  1
  O  O23  1  0.499986  0.368613  0.071219  1
  O  O24  1  0.567960  0.641936  0.089637  1
  O  O25  1  0.432048  0.358153  0.089637  1
  O  O26  1  0.567966  0.358163  0.089639  1
  O  O27  1  0.432050  0.641936  0.089637  1
  O  O28  1  0.584209  0.692352  0.062379  1
  O  O29  1  0.415755  0.307740  0.062380  1
  O  O30  1  0.584209  0.307755  0.062380  1
  O  O31  1  0.415754  0.692352  0.062378  1
  O  O32  1  0.591908  0.673224  0.117443  1
  O  O33  1  0.408055  0.326877  0.117442  1
  O  O34  1  0.591910  0.326887  0.117444  1
  O  O35  1  0.408058  0.673220  0.117444  1
  O  O36  1  0.564329  0.500057  0.107661  1
  O  O37  1  0.435634  0.500051  0.107663  1
  O  O38  1  0.499990  0.640966  0.108424  1
  O  O39  1  0.499991  0.359128  0.108426  1
  O  O40  1  0.432226  0.000000  0.144626  1
  O  O41  1  0.567754  0.000000  0.144626  1
  O  O42  1  0.336288  0.673212  0.137785  1
  O  O43  1  0.499993  0.863371  0.145060  1
  O  O44  1  0.663690  0.673210  0.137781  1
  O  O45  1  0.499989  0.136730  0.145059  1
  O  O46  1  0.411607  0.799751  0.138787  1
  O  O47  1  0.588377  0.799770  0.138785  1
  O  O48  1  0.588370  0.200333  0.138784  1
  O  O49  1  0.411603  0.200322  0.138786  1
  O  O50  1  0.421072  0.602930  0.141469  1
  O  O51  1  0.578903  0.602942  0.141467  1
  O  O52  1  0.578906  0.397163  0.141468  1
  O  O53  1  0.421074  0.397158  0.141470  1
  O  O54  1  0.336294  0.326848  0.137781  1
  O  O55  1  0.499991  0.500037  0.145011  1
  O  O56  1  0.931643  0.000000  0.115170  1
  O  O57  1  0.828252  0.500038  0.144460  1
  O  O58  1  0.932018  0.141939  0.096354  1
  O  O59  1  0.761848  0.358167  0.144570  1
  O  O60  1  0.932013  0.858160  0.096353  1
  O  O61  1  0.761839  0.641923  0.144567  1
  O  O62  1  0.915759  0.192357  0.123612  1
  O  O63  1  0.858053  0.307741  0.139960  1
  O  O64  1  0.915757  0.807740  0.123612  1
  O  O65  1  0.858055  0.692353  0.139961  1
  O  O66  1  0.908062  0.173225  0.068547  1
  O  O67  1  0.908056  0.826886  0.068548  1
  O  O68  1  0.935641  0.000000  0.078328  1
  O  O69  1  0.698226  0.500043  0.145596  1
  O  O70  1  0.000000  0.859133  0.077568  1
  O  O71  1  0.918587  0.169079  0.150273  1
  O  O72  1  0.952158  0.331013  0.140762  1
  O  O73  1  0.918581  0.831010  0.150273  1
  O  O74  1  0.952155  0.669080  0.140762  1
  O  O75  1  -0.000000  0.140969  0.077569  1
  O  O76  1  -0.000000  0.500045  0.144386  1
  O  O77  1  -0.000000  0.131485  0.114784  1
  O  O78  1  0.000000  0.868606  0.114785  1
  O  O79  1  0.068343  0.000000  0.212475  1
  O  O80  1  0.328267  -0.000000  0.286114  1
  O  O81  1  0.171713  0.499984  0.183192  1
  O  O82  1  0.173029  0.368628  0.163820  1
  O  O83  1  0.067966  0.141940  0.231295  1
  O  O84  1  0.261829  0.858169  0.286218  1
  O  O85  1  0.238143  0.358171  0.183100  1
  O  O86  1  0.067925  0.858152  0.231292  1
  O  O87  1  0.238108  0.641940  0.183048  1
  O  O88  1  0.261829  0.141963  0.286219  1
  O  O89  1  0.084219  0.192368  0.204035  1
  O  O90  1  0.141933  0.307788  0.187688  1
  O  O91  1  0.084226  0.807739  0.204039  1
  O  O92  1  0.141918  0.692390  0.187693  1
  O  O93  1  0.091917  0.173239  0.259102  1
  O  O94  1  0.163692  0.826889  0.279439  1
  O  O95  1  0.091913  0.826879  0.259101  1
  O  O96  1  0.163697  0.173236  0.279438  1
  O  O97  1  0.064339  0.000000  0.249319  1
  O  O98  1  0.198218  0.000000  0.287251  1
  O  O99  1  0.301754  0.500063  0.182058  1
  O  O100  1  0.068605  0.000000  0.163826  1
  O  O101  1  0.067747  0.500055  0.286286  1
  O  O102  1  0.088372  0.299784  0.280441  1
  O  O103  1  0.088375  0.700331  0.280441  1
  O  O104  1  0.078900  0.102941  0.283125  1
  O  O105  1  0.078896  0.897165  0.283125  1
  O  O106  1  0.081395  0.169088  0.177378  1
  O  O107  1  0.047822  0.331010  0.186888  1
  O  O108  1  0.081394  0.831021  0.177374  1
  O  O109  1  0.047812  0.669063  0.186888  1
  O  O110  1  0.304450  0.359133  0.163824  1
  O  O111  1  0.304430  0.640966  0.163826  1
  O  O112  1  0.173185  0.631516  0.163832  1
  O  O113  1  0.431634  0.500056  0.256829  1
  O  O114  1  0.568340  0.500067  0.256829  1
  O  O115  1  0.499986  0.631518  0.256441  1
  O  O116  1  0.566223  0.136738  0.163823  1
  O  O117  1  0.499990  0.368612  0.256444  1
  O  O118  1  0.432011  0.641955  0.238011  1
  O  O119  1  0.567967  0.358174  0.238011  1
  O  O120  1  0.432014  0.358170  0.238011  1
  O  O121  1  0.567960  0.641967  0.238010  1
  O  O122  1  0.641920  0.192393  0.281611  1
  O  O123  1  0.415747  0.692369  0.265267  1
  O  O124  1  0.358048  0.807763  0.281615  1
  O  O125  1  0.584225  0.307765  0.265265  1
  O  O126  1  0.641931  0.807797  0.281617  1
  O  O127  1  0.415756  0.307759  0.265268  1
  O  O128  1  0.358047  0.192363  0.281615  1
  O  O129  1  0.584219  0.692391  0.265269  1
  O  O130  1  0.408066  0.673231  0.210204  1
  O  O131  1  0.591910  0.326892  0.210204  1
  O  O132  1  0.408066  0.326877  0.210205  1
  O  O133  1  0.591915  0.673241  0.210201  1
  O  O134  1  0.435644  0.500051  0.219988  1
  O  O135  1  0.564335  0.500059  0.219985  1
  O  O136  1  0.499988  0.640983  0.219226  1
  O  O137  1  0.499993  0.359150  0.219228  1
  O  O138  1  0.567753  0.000000  0.183023  1
  O  O139  1  0.432227  0.000000  0.183023  1
  O  O140  1  0.499994  0.863387  0.182591  1
  O  O141  1  0.499989  0.136732  0.182589  1
  O  O142  1  0.588375  0.799796  0.188865  1
  O  O143  1  0.411613  0.799793  0.188866  1
  O  O144  1  0.411604  0.200320  0.188865  1
  O  O145  1  0.588363  0.200342  0.188865  1
  O  O146  1  0.578899  0.602949  0.186182  1
  O  O147  1  0.421080  0.602934  0.186182  1
  O  O148  1  0.421078  0.397175  0.186182  1
  O  O149  1  0.578899  0.397189  0.186183  1
  O  O150  1  0.547817  0.169074  0.282415  1
  O  O151  1  0.418580  0.669079  0.291931  1
  O  O152  1  0.452155  0.831045  0.282415  1
  O  O153  1  0.581398  0.331027  0.291932  1
  O  O154  1  0.547821  0.831034  0.282417  1
  O  O155  1  0.418582  0.331034  0.291932  1
  O  O156  1  0.452155  0.169079  0.282417  1
  O  O157  1  0.581395  0.669090  0.291928  1
  O  O158  1  0.433588  0.500039  0.163824  1
  O  O159  1  0.499992  0.500067  0.182638  1
  O  O160  1  0.336266  0.673233  0.189870  1
  O  O161  1  0.499983  0.000000  0.286040  1
  O  O162  1  0.663701  0.673229  0.189868  1
  O  O163  1  0.663693  0.326895  0.189868  1
  O  O164  1  0.336284  0.326881  0.189871  1
  O  O165  1  0.566393  0.500058  0.163823  1
  O  O166  1  0.566230  0.863384  0.163823  1
  O  O167  1  0.433759  0.863377  0.163823  1
  O  O168  1  0.433752  0.136725  0.163823  1
  O  O169  1  0.828264  0.500060  0.183191  1
  O  O170  1  0.671711  0.000000  0.286112  1
  O  O171  1  0.931642  0.000000  0.212477  1
  O  O172  1  0.826843  0.368602  0.163826  1
  O  O173  1  0.761830  0.641949  0.183086  1
  O  O174  1  0.738104  0.141943  0.286260  1
  O  O175  1  0.932014  0.858168  0.231295  1
  O  O176  1  0.738148  0.858174  0.286205  1
  O  O177  1  0.761862  0.358177  0.183064  1
  O  O178  1  0.932014  0.141936  0.231294  1
  O  O179  1  0.858050  0.692350  0.187689  1
  O  O180  1  0.915763  0.807759  0.204038  1
  O  O181  1  0.858052  0.307737  0.187692  1
  O  O182  1  0.915752  0.192360  0.204038  1
  O  O183  1  0.826918  0.631481  0.163819  1
  O  O184  1  0.836272  0.173236  0.279435  1
  O  O185  1  0.908071  0.826882  0.259100  1
  O  O186  1  0.836287  0.826883  0.279436  1
  O  O187  1  0.908070  0.173235  0.259101  1
  O  O188  1  0.698211  0.500050  0.182055  1
  O  O189  1  0.801757  0.000000  0.287247  1
  O  O190  1  0.935644  -0.000000  0.249318  1
  O  O191  1  0.000000  0.000000  0.286669  1
  O  O192  1  0.932232  0.500067  0.286286  1
  O  O193  1  0.000000  0.868590  0.212873  1
  O  O194  1  -0.000000  0.859137  0.250080  1
  O  O195  1  0.911610  0.299780  0.280442  1
  O  O196  1  0.911609  0.700341  0.280443  1
  O  O197  1  0.921079  0.102943  0.283124  1
  O  O198  1  0.921074  0.897176  0.283124  1
  O  O199  1  0.952153  0.669075  0.186889  1
  O  O200  1  0.918587  0.831018  0.177375  1
  O  O201  1  0.952156  0.331030  0.186888  1
  O  O202  1  0.918580  0.169085  0.177375  1
  O  O203  1  -0.000000  0.500046  0.183265  1
  O  O204  1  0.000000  0.368545  0.163825  1
  O  O205  1  0.695543  0.640968  0.163820  1
  O  O206  1  0.000000  0.631554  0.163824  1
  O  O207  1  -0.000000  0.131489  0.212863  1
  O  O208  1  0.695550  0.359136  0.163824  1
  O  O209  1  0.931380  0.000000  0.163826  1
  O  O210  1  0.000000  0.363392  0.286720  1
  O  O211  1  -0.000000  0.868546  0.163825  1
  O  O212  1  0.000000  0.636725  0.286717  1
  O  O213  1  0.000000  0.131546  0.163827  1
  O  O214  1  0.000000  0.140964  0.250079  1
  O  O215  1  0.328255  0.000000  0.324845  1
  O  O216  1  0.171724  0.500053  0.427777  1
  O  O217  1  0.068335  0.000000  0.398485  1
  O  O218  1  0.261844  0.141945  0.324739  1
  O  O219  1  0.238131  0.641926  0.427880  1
  O  O220  1  0.067961  0.858162  0.379667  1
  O  O221  1  0.238139  0.358148  0.427880  1
  O  O222  1  0.261841  0.858172  0.324740  1
  O  O223  1  0.067960  0.141927  0.379669  1
  O  O224  1  0.141931  0.692338  0.423274  1
  O  O225  1  0.084214  0.807742  0.406926  1
  O  O226  1  0.141925  0.307726  0.423277  1
  O  O227  1  0.084223  0.192347  0.406926  1
  O  O228  1  0.163696  0.173228  0.331524  1
  O  O229  1  0.091915  0.826879  0.351861  1
  O  O230  1  0.163696  0.826890  0.331524  1
  O  O231  1  0.091914  0.173221  0.351862  1
  O  O232  1  0.198223  0.000000  0.323712  1
  O  O233  1  0.301754  0.500060  0.428913  1
  O  O234  1  0.064335  0.000000  0.361643  1
  O  O235  1  0.067745  0.500055  0.324679  1
  O  O236  1  0.088370  0.299772  0.330522  1
  O  O237  1  0.088375  0.700334  0.330522  1
  O  O238  1  0.078903  0.102942  0.327839  1
  O  O239  1  0.078902  0.897164  0.327839  1
  O  O240  1  0.047822  0.669080  0.424078  1
  O  O241  1  0.081400  0.831009  0.433586  1
  O  O242  1  0.047819  0.331024  0.424075  1
  O  O243  1  0.081397  0.169065  0.433587  1
  O  O244  1  0.066390  0.000000  0.305482  1
  O  O245  1  0.326920  0.868624  0.305486  1
  O  O246  1  0.326917  0.131500  0.305486  1
  O  O247  1  0.066219  0.363383  0.305483  1
  O  O248  1  0.195542  0.140984  0.305484  1
  O  O249  1  0.195541  0.859147  0.305483  1
  O  O250  1  0.066223  0.636718  0.305483  1
  O  O251  1  0.568327  0.500055  0.354135  1
  O  O252  1  0.431628  0.500048  0.354131  1
  O  O253  1  0.663692  0.326880  0.421096  1
  O  O254  1  0.499990  0.368561  0.305478  1
  O  O255  1  0.499984  0.631494  0.354531  1
  O  O256  1  0.499986  0.368613  0.354533  1
  O  O257  1  0.567960  0.641936  0.372951  1
  O  O258  1  0.432048  0.358153  0.372951  1
  O  O259  1  0.567966  0.358163  0.372952  1
  O  O260  1  0.432050  0.641936  0.372950  1
  O  O261  1  0.358052  0.192367  0.329345  1
  O  O262  1  0.584209  0.692352  0.345692  1
  O  O263  1  0.641919  0.807734  0.329341  1
  O  O264  1  0.415755  0.307740  0.345693  1
  O  O265  1  0.358049  0.807748  0.329344  1
  O  O266  1  0.584209  0.307755  0.345693  1
  O  O267  1  0.641923  0.192364  0.329343  1
  O  O268  1  0.415754  0.692352  0.345692  1
  O  O269  1  0.591908  0.673224  0.400756  1
  O  O270  1  0.408055  0.326877  0.400756  1
  O  O271  1  0.591910  0.326887  0.400757  1
  O  O272  1  0.408058  0.673220  0.400757  1
  O  O273  1  0.564329  0.500057  0.390974  1
  O  O274  1  0.435634  0.500051  0.390976  1
  O  O275  1  0.499990  0.640966  0.391737  1
  O  O276  1  0.499991  0.359128  0.391739  1
  O  O277  1  0.432226  0.000000  0.427939  1
  O  O278  1  0.567754  0.000000  0.427939  1
  O  O279  1  0.336288  0.673212  0.421098  1
  O  O280  1  0.499993  0.863371  0.428373  1
  O  O281  1  0.663690  0.673210  0.421095  1
  O  O282  1  0.499989  0.136730  0.428372  1
  O  O283  1  0.411607  0.799751  0.422100  1
  O  O284  1  0.588377  0.799770  0.422098  1
  O  O285  1  0.588370  0.200333  0.422097  1
  O  O286  1  0.411603  0.200322  0.422099  1
  O  O287  1  0.421072  0.602930  0.424783  1
  O  O288  1  0.578903  0.602942  0.424780  1
  O  O289  1  0.578906  0.397163  0.424781  1
  O  O290  1  0.421074  0.397158  0.424783  1
  O  O291  1  0.452159  0.169071  0.328543  1
  O  O292  1  0.581397  0.669077  0.319032  1
  O  O293  1  0.547820  0.831023  0.328543  1
  O  O294  1  0.418581  0.331039  0.319033  1
  O  O295  1  0.452160  0.831021  0.328545  1
  O  O296  1  0.581401  0.331028  0.319033  1
  O  O297  1  0.547826  0.169081  0.328543  1
  O  O298  1  0.418584  0.669079  0.319033  1
  O  O299  1  0.336294  0.326848  0.421094  1
  O  O300  1  0.499991  0.500037  0.428325  1
  O  O301  1  0.499988  0.631560  0.305480  1
  O  O302  1  0.431374  0.500055  0.305480  1
  O  O303  1  0.568608  0.500055  0.305479  1
  O  O304  1  0.499988  0.000000  0.324920  1
  O  O305  1  0.499990  0.131558  0.305481  1
  O  O306  1  0.499982  0.868551  0.305481  1
  O  O307  1  0.931643  0.000000  0.398483  1
  O  O308  1  0.828252  0.500038  0.427773  1
  O  O309  1  0.671728  0.000000  0.324840  1
  O  O310  1  0.673206  0.131526  0.305474  1
  O  O311  1  0.932018  0.141939  0.379667  1
  O  O312  1  0.761848  0.358167  0.427884  1
  O  O313  1  0.738134  0.858163  0.324739  1
  O  O314  1  0.932013  0.858160  0.379666  1
  O  O315  1  0.738128  0.141942  0.324737  1
  O  O316  1  0.761839  0.641923  0.427881  1
  O  O317  1  0.915759  0.192357  0.406925  1
  O  O318  1  0.858053  0.307741  0.423273  1
  O  O319  1  0.915757  0.807740  0.406925  1
  O  O320  1  0.858055  0.692353  0.423274  1
  O  O321  1  0.908062  0.173225  0.351860  1
  O  O322  1  0.933585  0.000000  0.305481  1
  O  O323  1  0.836289  0.826869  0.331524  1
  O  O324  1  0.908056  0.826886  0.351861  1
  O  O325  1  0.836278  0.173222  0.331520  1
  O  O326  1  0.933756  0.636730  0.305482  1
  O  O327  1  0.935641  0.000000  0.361641  1
  O  O328  1  0.698226  0.500043  0.428909  1
  O  O329  1  0.801752  0.000000  0.323706  1
  O  O330  1  0.804437  0.140975  0.305479  1
  O  O331  1  0.000000  0.859133  0.360881  1
  O  O332  1  0.932227  0.500060  0.324680  1
  O  O333  1  0.933759  0.363390  0.305482  1
  O  O334  1  -0.000000  0.636728  0.324248  1
  O  O335  1  0.911602  0.299783  0.330522  1
  O  O336  1  0.911602  0.700322  0.330520  1
  O  O337  1  0.921075  0.102945  0.327837  1
  O  O338  1  0.921072  0.897177  0.327837  1
  O  O339  1  0.918587  0.169079  0.433586  1
  O  O340  1  0.952158  0.331013  0.424075  1
  O  O341  1  0.918581  0.831010  0.433587  1
  O  O342  1  0.952155  0.669080  0.424076  1
  O  O343  1  0.000000  0.140969  0.360882  1
  O  O344  1  0.000000  0.500045  0.427699  1
  O  O345  1  0.000000  0.363383  0.324247  1
  O  O346  1  0.000000  0.000000  0.324295  1
  O  O347  1  -0.000000  0.131485  0.398097  1
  O  O348  1  0.000000  0.868606  0.398098  1
  O  O349  1  0.673031  0.868645  0.305487  1
  O  O350  1  0.804451  0.859143  0.305482  1
  O  O351  1  0.068343  0.000000  0.495788  1
  O  O352  1  0.328267  0.000000  0.569428  1
  O  O353  1  0.171713  0.499984  0.466506  1
  O  O354  1  0.173029  0.368628  0.447133  1
  O  O355  1  0.067966  0.141940  0.514609  1
  O  O356  1  0.261829  0.858169  0.569532  1
  O  O357  1  0.238143  0.358171  0.466414  1
  O  O358  1  0.067925  0.858152  0.514605  1
  O  O359  1  0.238108  0.641940  0.466361  1
  O  O360  1  0.261829  0.141963  0.569532  1
  O  O361  1  0.084219  0.192368  0.487348  1
  O  O362  1  0.141933  0.307788  0.471002  1
  O  O363  1  0.084226  0.807739  0.487352  1
  O  O364  1  0.141918  0.692390  0.471006  1
  O  O365  1  0.091917  0.173239  0.542416  1
  O  O366  1  0.163692  0.826889  0.562752  1
  O  O367  1  0.091913  0.826879  0.542415  1
  O  O368  1  0.163697  0.173236  0.562752  1
  O  O369  1  0.064339  0.000000  0.532632  1
  O  O370  1  0.198218  0.000000  0.570564  1
  O  O371  1  0.301754  0.500063  0.465371  1
  O  O372  1  0.068605  0.000000  0.447139  1
  O  O373  1  0.067747  0.500055  0.569599  1
  O  O374  1  0.088372  0.299784  0.563754  1
  O  O375  1  0.088375  0.700331  0.563754  1
  O  O376  1  0.078900  0.102941  0.566438  1
  O  O377  1  0.078896  0.897165  0.566438  1
  O  O378  1  0.081395  0.169088  0.460691  1
  O  O379  1  0.047822  0.331010  0.470202  1
  O  O380  1  0.081394  0.831021  0.460687  1
  O  O381  1  0.047812  0.669063  0.470201  1
  O  O382  1  0.304450  0.359133  0.447138  1
  O  O383  1  0.304430  0.640966  0.447139  1
  O  O384  1  0.173185  0.631516  0.447145  1
  O  O385  1  0.431634  0.500056  0.540142  1
  O  O386  1  0.568340  0.500067  0.540143  1
  O  O387  1  0.499986  0.631518  0.539754  1
  O  O388  1  0.566223  0.136738  0.447136  1
  O  O389  1  0.499990  0.368612  0.539757  1
  O  O390  1  0.432011  0.641955  0.521325  1
  O  O391  1  0.567967  0.358174  0.521325  1
  O  O392  1  0.432014  0.358170  0.521324  1
  O  O393  1  0.567960  0.641967  0.521324  1
  O  O394  1  0.641920  0.192393  0.564924  1
  O  O395  1  0.415747  0.692369  0.548581  1
  O  O396  1  0.358048  0.807763  0.564928  1
  O  O397  1  0.584225  0.307765  0.548578  1
  O  O398  1  0.641931  0.807797  0.564930  1
  O  O399  1  0.415756  0.307759  0.548581  1
  O  O400  1  0.358047  0.192363  0.564928  1
  O  O401  1  0.584219  0.692391  0.548583  1
  O  O402  1  0.408066  0.673231  0.493517  1
  O  O403  1  0.591910  0.326892  0.493517  1
  O  O404  1  0.408066  0.326877  0.493519  1
  O  O405  1  0.591915  0.673241  0.493515  1
  O  O406  1  0.435644  0.500051  0.503301  1
  O  O407  1  0.564335  0.500059  0.503298  1
  O  O408  1  0.499988  0.640983  0.502539  1
  O  O409  1  0.499993  0.359150  0.502541  1
  O  O410  1  0.567753  0.000000  0.466336  1
  O  O411  1  0.432227  0.000000  0.466337  1
  O  O412  1  0.499994  0.863387  0.465905  1
  O  O413  1  0.499989  0.136732  0.465903  1
  O  O414  1  0.588375  0.799796  0.472179  1
  O  O415  1  0.411613  0.799793  0.472180  1
  O  O416  1  0.411604  0.200320  0.472178  1
  O  O417  1  0.588363  0.200342  0.472178  1
  O  O418  1  0.578899  0.602949  0.469495  1
  O  O419  1  0.421080  0.602934  0.469495  1
  O  O420  1  0.421078  0.397175  0.469496  1
  O  O421  1  0.578899  0.397189  0.469496  1
  O  O422  1  0.547817  0.169074  0.565729  1
  O  O423  1  0.418580  0.669079  0.575244  1
  O  O424  1  0.452155  0.831045  0.565729  1
  O  O425  1  0.581398  0.331027  0.575246  1
  O  O426  1  0.547821  0.831034  0.565730  1
  O  O427  1  0.418582  0.331034  0.575245  1
  O  O428  1  0.452155  0.169079  0.565730  1
  O  O429  1  0.581395  0.669090  0.575242  1
  O  O430  1  0.433588  0.500039  0.447137  1
  O  O431  1  0.499992  0.500067  0.465951  1
  O  O432  1  0.336266  0.673233  0.473183  1
  O  O433  1  0.499983  0.000000  0.569353  1
  O  O434  1  0.663701  0.673229  0.473181  1
  O  O435  1  0.663693  0.326895  0.473182  1
  O  O436  1  0.336284  0.326881  0.473185  1
  O  O437  1  0.566393  0.500058  0.447136  1
  O  O438  1  0.566230  0.863384  0.447136  1
  O  O439  1  0.433759  0.863377  0.447136  1
  O  O440  1  0.433752  0.136725  0.447136  1
  O  O441  1  0.828264  0.500060  0.466504  1
  O  O442  1  0.671711  0.000000  0.569425  1
  O  O443  1  0.931642  0.000000  0.495790  1
  O  O444  1  0.826843  0.368602  0.447139  1
  O  O445  1  0.761830  0.641949  0.466400  1
  O  O446  1  0.738104  0.141943  0.569573  1
  O  O447  1  0.932014  0.858168  0.514609  1
  O  O448  1  0.738148  0.858174  0.569518  1
  O  O449  1  0.761862  0.358177  0.466377  1
  O  O450  1  0.932014  0.141936  0.514608  1
  O  O451  1  0.858050  0.692350  0.471002  1
  O  O452  1  0.915763  0.807759  0.487351  1
  O  O453  1  0.858052  0.307737  0.471006  1
  O  O454  1  0.915752  0.192360  0.487352  1
  O  O455  1  0.826918  0.631481  0.447132  1
  O  O456  1  0.836272  0.173236  0.562748  1
  O  O457  1  0.908071  0.826882  0.542414  1
  O  O458  1  0.836287  0.826883  0.562749  1
  O  O459  1  0.908070  0.173235  0.542414  1
  O  O460  1  0.698211  0.500050  0.465369  1
  O  O461  1  0.801757  0.000000  0.570560  1
  O  O462  1  0.935644  0.000000  0.532632  1
  O  O463  1  0.000000  0.000000  0.569982  1
  O  O464  1  0.932232  0.500067  0.569599  1
  O  O465  1  -0.000000  0.868590  0.496187  1
  O  O466  1  -0.000000  0.859137  0.533393  1
  O  O467  1  0.911610  0.299780  0.563755  1
  O  O468  1  0.911609  0.700341  0.563756  1
  O  O469  1  0.921079  0.102943  0.566438  1
  O  O470  1  0.921074  0.897176  0.566438  1
  O  O471  1  0.952153  0.669075  0.470202  1
  O  O472  1  0.918587  0.831018  0.460688  1
  O  O473  1  0.952156  0.331030  0.470201  1
  O  O474  1  0.918580  0.169085  0.460688  1
  O  O475  1  0.000000  0.500046  0.466578  1
  O  O476  1  0.000000  0.368545  0.447138  1
  O  O477  1  0.695543  0.640968  0.447134  1
  O  O478  1  0.000000  0.631554  0.447138  1
  O  O479  1  0.000000  0.131489  0.496176  1
  O  O480  1  0.695550  0.359136  0.447138  1
  O  O481  1  0.931380  0.000000  0.447139  1
  O  O482  1  0.000000  0.363392  0.570033  1
  O  O483  1  0.000000  0.868546  0.447138  1
  O  O484  1  0.000000  0.636725  0.570030  1
  O  O485  1  -0.000000  0.131546  0.447140  1
  O  O486  1  0.000000  0.140964  0.533393  1
  O  O487  1  0.328255  0.000000  0.608158  1
  O  O488  1  0.171724  0.500053  0.711090  1
  O  O489  1  0.068335  0.000000  0.681798  1
  O  O490  1  0.261844  0.141945  0.608053  1
  O  O491  1  0.238131  0.641926  0.711194  1
  O  O492  1  0.067961  0.858162  0.662981  1
  O  O493  1  0.238139  0.358148  0.711193  1
  O  O494  1  0.261841  0.858172  0.608053  1
  O  O495  1  0.067960  0.141927  0.662982  1
  O  O496  1  0.141931  0.692338  0.706588  1
  O  O497  1  0.084214  0.807742  0.690239  1
  O  O498  1  0.141925  0.307726  0.706591  1
  O  O499  1  0.084223  0.192347  0.690239  1
  O  O500  1  0.163696  0.173228  0.614837  1
  O  O501  1  0.091915  0.826879  0.635174  1
  O  O502  1  0.163696  0.826890  0.614837  1
  O  O503  1  0.091914  0.173221  0.635176  1
  O  O504  1  0.198223  0.000000  0.607025  1
  O  O505  1  0.301754  0.500060  0.712226  1
  O  O506  1  0.064335  0.000000  0.644956  1
  O  O507  1  0.067745  0.500055  0.607993  1
  O  O508  1  0.088370  0.299772  0.613836  1
  O  O509  1  0.088375  0.700334  0.613835  1
  O  O510  1  0.078903  0.102942  0.611152  1
  O  O511  1  0.078902  0.897164  0.611152  1
  O  O512  1  0.047822  0.669080  0.707391  1
  O  O513  1  0.081400  0.831009  0.716900  1
  O  O514  1  0.047819  0.331024  0.707389  1
  O  O515  1  0.081397  0.169065  0.716900  1
  O  O516  1  0.066390  0.000000  0.588796  1
  O  O517  1  0.326920  0.868624  0.588799  1
  O  O518  1  0.326917  0.131500  0.588800  1
  O  O519  1  0.066219  0.363383  0.588796  1
  O  O520  1  0.195542  0.140984  0.588797  1
  O  O521  1  0.195541  0.859147  0.588797  1
  O  O522  1  0.066223  0.636718  0.588796  1
  O  O523  1  0.568327  0.500055  0.637448  1
  O  O524  1  0.431628  0.500048  0.637445  1
  O  O525  1  0.663692  0.326880  0.704410  1
  O  O526  1  0.499990  0.368561  0.588792  1
  O  O527  1  0.499984  0.631494  0.637844  1
  O  O528  1  0.499986  0.368613  0.637846  1
  O  O529  1  0.567960  0.641936  0.656264  1
  O  O530  1  0.432048  0.358153  0.656264  1
  O  O531  1  0.567966  0.358163  0.656265  1
  O  O532  1  0.432050  0.641936  0.656264  1
  O  O533  1  0.358052  0.192367  0.612658  1
  O  O534  1  0.584209  0.692352  0.629006  1
  O  O535  1  0.641919  0.807734  0.612655  1
  O  O536  1  0.415755  0.307740  0.629006  1
  O  O537  1  0.358049  0.807748  0.612658  1
  O  O538  1  0.584209  0.307755  0.629007  1
  O  O539  1  0.641923  0.192364  0.612656  1
  O  O540  1  0.415754  0.692352  0.629005  1
  O  O541  1  0.591908  0.673224  0.684070  1
  O  O542  1  0.408055  0.326877  0.684069  1
  O  O543  1  0.591910  0.326887  0.684070  1
  O  O544  1  0.408058  0.673220  0.684070  1
  O  O545  1  0.564329  0.500057  0.674288  1
  O  O546  1  0.435634  0.500051  0.674290  1
  O  O547  1  0.499990  0.640966  0.675050  1
  O  O548  1  0.499991  0.359128  0.675052  1
  O  O549  1  0.432226  0.000000  0.711253  1
  O  O550  1  0.567754  0.000000  0.711253  1
  O  O551  1  0.336288  0.673212  0.704412  1
  O  O552  1  0.499993  0.863371  0.711686  1
  O  O553  1  0.663690  0.673210  0.704408  1
  O  O554  1  0.499989  0.136730  0.711686  1
  O  O555  1  0.411607  0.799751  0.705413  1
  O  O556  1  0.588377  0.799770  0.705412  1
  O  O557  1  0.588370  0.200333  0.705411  1
  O  O558  1  0.411603  0.200322  0.705413  1
  O  O559  1  0.421072  0.602930  0.708096  1
  O  O560  1  0.578903  0.602942  0.708094  1
  O  O561  1  0.578906  0.397163  0.708095  1
  O  O562  1  0.421074  0.397158  0.708097  1
  O  O563  1  0.452159  0.169071  0.611856  1
  O  O564  1  0.581397  0.669077  0.602346  1
  O  O565  1  0.547820  0.831023  0.611857  1
  O  O566  1  0.418581  0.331039  0.602346  1
  O  O567  1  0.452160  0.831021  0.611858  1
  O  O568  1  0.581401  0.331028  0.602347  1
  O  O569  1  0.547826  0.169081  0.611856  1
  O  O570  1  0.418584  0.669079  0.602346  1
  O  O571  1  0.336294  0.326848  0.704408  1
  O  O572  1  0.499991  0.500037  0.711638  1
  O  O573  1  0.499988  0.631560  0.588794  1
  O  O574  1  0.431374  0.500055  0.588793  1
  O  O575  1  0.568608  0.500055  0.588793  1
  O  O576  1  0.499988  0.000000  0.608233  1
  O  O577  1  0.499990  0.131558  0.588794  1
  O  O578  1  0.499982  0.868551  0.588795  1
  O  O579  1  0.931643  0.000000  0.681796  1
  O  O580  1  0.828252  0.500038  0.711087  1
  O  O581  1  0.671728  0.000000  0.608154  1
  O  O582  1  0.673206  0.131526  0.588788  1
  O  O583  1  0.932018  0.141939  0.662981  1
  O  O584  1  0.761848  0.358167  0.711197  1
  O  O585  1  0.738134  0.858163  0.608053  1
  O  O586  1  0.932013  0.858160  0.662980  1
  O  O587  1  0.738128  0.141942  0.608050  1
  O  O588  1  0.761839  0.641923  0.711194  1
  O  O589  1  0.915759  0.192357  0.690239  1
  O  O590  1  0.858053  0.307741  0.706587  1
  O  O591  1  0.915757  0.807740  0.690239  1
  O  O592  1  0.858055  0.692353  0.706587  1
  O  O593  1  0.908062  0.173225  0.635174  1
  O  O594  1  0.933585  0.000000  0.588794  1
  O  O595  1  0.836289  0.826869  0.614837  1
  O  O596  1  0.908056  0.826886  0.635175  1
  O  O597  1  0.836278  0.173222  0.614834  1
  O  O598  1  0.933756  0.636730  0.588795  1
  O  O599  1  0.935641  -0.000000  0.644955  1
  O  O600  1  0.698226  0.500043  0.712223  1
  O  O601  1  0.801752  0.000000  0.607019  1
  O  O602  1  0.804437  0.140975  0.588793  1
  O  O603  1  0.000000  0.859133  0.644194  1
  O  O604  1  0.932227  0.500060  0.607994  1
  O  O605  1  0.933759  0.363390  0.588795  1
  O  O606  1  0.000000  0.636728  0.607561  1
  O  O607  1  0.911602  0.299783  0.613835  1
  O  O608  1  0.911602  0.700322  0.613834  1
  O  O609  1  0.921075  0.102945  0.611151  1
  O  O610  1  0.921072  0.897177  0.611150  1
  O  O611  1  0.918587  0.169079  0.716900  1
  O  O612  1  0.952158  0.331013  0.707388  1
  O  O613  1  0.918581  0.831010  0.716900  1
  O  O614  1  0.952155  0.669080  0.707389  1
  O  O615  1  0.000000  0.140969  0.644196  1
  O  O616  1  -0.000000  0.500045  0.711013  1
  O  O617  1  0.000000  0.363383  0.607560  1
  O  O618  1  0.000000  0.000000  0.607608  1
  O  O619  1  0.000000  0.131485  0.681411  1
  O  O620  1  0.000000  0.868606  0.681411  1
  O  O621  1  0.673031  0.868645  0.588800  1
  O  O622  1  0.804451  0.859143  0.588795  1
  O  O623  1  0.068343  0.000000  0.779102  1
  O  O624  1  0.171713  0.499984  0.749819  1
  O  O625  1  0.173029  0.368628  0.730447  1
  O  O626  1  0.067966  0.141940  0.797922  1
  O  O627  1  0.238143  0.358171  0.749727  1
  O  O628  1  0.067925  0.858152  0.797919  1
  O  O629  1  0.238108  0.641940  0.749675  1
  O  O630  1  0.084219  0.192368  0.770662  1
  O  O631  1  0.141933  0.307788  0.754315  1
  O  O632  1  0.084226  0.807739  0.770665  1
  O  O633  1  0.141918  0.692390  0.754320  1
  O  O634  1  0.091917  0.173239  0.825729  1
  O  O635  1  0.091913  0.826879  0.825728  1
  O  O636  1  0.064339  0.000000  0.815946  1
  O  O637  1  0.301754  0.500063  0.748685  1
  O  O638  1  0.068605  0.000000  0.730453  1
  O  O639  1  0.081395  0.169088  0.744004  1
  O  O640  1  0.047822  0.331010  0.753515  1
  O  O641  1  0.081394  0.831021  0.744001  1
  O  O642  1  0.047812  0.669063  0.753514  1
  O  O643  1  0.304450  0.359133  0.730451  1
  O  O644  1  0.304430  0.640966  0.730453  1
  O  O645  1  0.173185  0.631516  0.730459  1
  O  O646  1  0.431634  0.500056  0.823456  1
  O  O647  1  0.568340  0.500067  0.823456  1
  O  O648  1  0.499986  0.631518  0.823067  1
  O  O649  1  0.566223  0.136738  0.730449  1
  O  O650  1  0.499990  0.368612  0.823071  1
  O  O651  1  0.432011  0.641955  0.804638  1
  O  O652  1  0.567967  0.358174  0.804638  1
  O  O653  1  0.432014  0.358170  0.804638  1
  O  O654  1  0.567960  0.641967  0.804637  1
  O  O655  1  0.415747  0.692369  0.831894  1
  O  O656  1  0.584225  0.307765  0.831892  1
  O  O657  1  0.415756  0.307759  0.831895  1
  O  O658  1  0.584219  0.692391  0.831896  1
  O  O659  1  0.408066  0.673231  0.776830  1
  O  O660  1  0.591910  0.326892  0.776830  1
  O  O661  1  0.408066  0.326877  0.776832  1
  O  O662  1  0.591915  0.673241  0.776828  1
  O  O663  1  0.435644  0.500051  0.786615  1
  O  O664  1  0.564335  0.500059  0.786612  1
  O  O665  1  0.499988  0.640983  0.785852  1
  O  O666  1  0.499993  0.359150  0.785854  1
  O  O667  1  0.567753  0.000000  0.749650  1
  O  O668  1  0.432227  0.000000  0.749650  1
  O  O669  1  0.499994  0.863387  0.749218  1
  O  O670  1  0.499989  0.136732  0.749216  1
  O  O671  1  0.588375  0.799796  0.755492  1
  O  O672  1  0.411613  0.799793  0.755493  1
  O  O673  1  0.411604  0.200320  0.755491  1
  O  O674  1  0.588363  0.200342  0.755491  1
  O  O675  1  0.578899  0.602949  0.752809  1
  O  O676  1  0.421080  0.602934  0.752809  1
  O  O677  1  0.421078  0.397175  0.752809  1
  O  O678  1  0.578899  0.397189  0.752810  1
  O  O679  1  0.433588  0.500039  0.730450  1
  O  O680  1  0.499992  0.500067  0.749265  1
  O  O681  1  0.336266  0.673233  0.756496  1
  O  O682  1  0.663701  0.673229  0.756494  1
  O  O683  1  0.663693  0.326895  0.756495  1
  O  O684  1  0.336284  0.326881  0.756498  1
  O  O685  1  0.566393  0.500058  0.730449  1
  O  O686  1  0.566230  0.863384  0.730449  1
  O  O687  1  0.433759  0.863377  0.730450  1
  O  O688  1  0.433752  0.136725  0.730450  1
  O  O689  1  0.828264  0.500060  0.749818  1
  O  O690  1  0.931642  0.000000  0.779104  1
  O  O691  1  0.826843  0.368602  0.730453  1
  O  O692  1  0.761830  0.641949  0.749713  1
  O  O693  1  0.932014  0.858168  0.797922  1
  O  O694  1  0.761862  0.358177  0.749690  1
  O  O695  1  0.932014  0.141936  0.797921  1
  O  O696  1  0.858050  0.692350  0.754315  1
  O  O697  1  0.915763  0.807759  0.770665  1
  O  O698  1  0.858052  0.307737  0.754319  1
  O  O699  1  0.915752  0.192360  0.770665  1
  O  O700  1  0.826918  0.631481  0.730445  1
  O  O701  1  0.908071  0.826882  0.825727  1
  O  O702  1  0.908070  0.173235  0.825728  1
  O  O703  1  0.698211  0.500050  0.748682  1
  O  O704  1  0.935644  0.000000  0.815945  1
  O  O705  1  0.000000  0.868590  0.779500  1
  O  O706  1  0.000000  0.859137  0.816706  1
  O  O707  1  0.952153  0.669075  0.753516  1
  O  O708  1  0.918587  0.831018  0.744002  1
  O  O709  1  0.952156  0.331030  0.753514  1
  O  O710  1  0.918580  0.169085  0.744001  1
  O  O711  1  0.000000  0.500046  0.749891  1
  O  O712  1  0.000000  0.368545  0.730452  1
  O  O713  1  0.695543  0.640968  0.730447  1
  O  O714  1  -0.000000  0.631554  0.730451  1
  O  O715  1  0.000000  0.131489  0.779490  1
  O  O716  1  0.695550  0.359136  0.730451  1
  O  O717  1  0.931380  0.000000  0.730452  1
  O  O718  1  0.000000  0.868546  0.730451  1
  O  O719  1  0.000000  0.131546  0.730453  1
  O  O720  1  0.000000  0.140964  0.816706  1
  Si  Si721  1  0.057496  0.119809  0.080131  1
  Si  Si722  1  0.090469  0.250049  0.138190  1
  Si  Si723  1  0.090475  0.750039  0.138189  1
  Si  Si724  1  0.295410  0.380286  0.147530  1
  Si  Si725  1  0.057495  0.880280  0.080129  1
  Si  Si726  1  0.180844  0.619193  0.147460  1
  Si  Si727  1  0.057761  0.880895  0.112586  1
  Si  Si728  1  0.180842  0.380901  0.147452  1
  Si  Si729  1  0.057764  0.119191  0.112588  1
  Si  Si730  1  0.295397  0.619824  0.147533  1
  Si  Si731  1  0.442536  0.500044  0.147546  1
  Si  Si732  1  0.557446  0.500048  0.147545  1
  Si  Si733  1  0.557761  0.619202  0.073406  1
  Si  Si734  1  0.442204  0.380895  0.073406  1
  Si  Si735  1  0.557765  0.380908  0.073407  1
  Si  Si736  1  0.442204  0.619203  0.073405  1
  Si  Si737  1  0.557495  0.619826  0.105862  1
  Si  Si738  1  0.442486  0.380286  0.105863  1
  Si  Si739  1  0.557496  0.380285  0.105863  1
  Si  Si740  1  0.442485  0.619812  0.105863  1
  Si  Si741  1  0.442485  0.880904  0.147530  1
  Si  Si742  1  0.557500  0.880917  0.147530  1
  Si  Si743  1  0.557496  0.119189  0.147530  1
  Si  Si744  1  0.442482  0.119180  0.147531  1
  Si  Si745  1  0.392829  0.691155  0.133466  1
  Si  Si746  1  0.607148  0.691169  0.133464  1
  Si  Si747  1  0.607149  0.308933  0.133464  1
  Si  Si748  1  0.392839  0.308922  0.133465  1
  Si  Si749  1  0.942209  0.119192  0.112586  1
  Si  Si750  1  0.819140  0.380896  0.147457  1
  Si  Si751  1  0.942208  0.880896  0.112586  1
  Si  Si752  1  0.819134  0.619187  0.147448  1
  Si  Si753  1  0.942481  0.119813  0.080129  1
  Si  Si754  1  0.704580  0.380275  0.147532  1
  Si  Si755  1  0.942479  0.880285  0.080129  1
  Si  Si756  1  0.704574  0.619811  0.147529  1
  Si  Si757  1  0.909507  0.250047  0.138189  1
  Si  Si758  1  0.909505  0.750047  0.138189  1
  Si  Si759  1  -0.000000  0.381265  0.147306  1
  Si  Si760  1  0.000000  0.618831  0.147304  1
  Si  Si761  1  0.090488  0.250071  0.189459  1
  Si  Si762  1  0.057494  0.380915  0.289190  1
  Si  Si763  1  0.058296  0.881267  0.163823  1
  Si  Si764  1  0.057446  0.000000  0.289204  1
  Si  Si765  1  0.090456  0.750055  0.189460  1
  Si  Si766  1  0.107149  0.191175  0.275123  1
  Si  Si767  1  0.057496  0.619199  0.289190  1
  Si  Si768  1  0.107147  0.808942  0.275122  1
  Si  Si769  1  0.057764  0.119217  0.215061  1
  Si  Si770  1  0.319128  0.880904  0.289116  1
  Si  Si771  1  0.180855  0.380863  0.180190  1
  Si  Si772  1  0.057775  0.880910  0.215061  1
  Si  Si773  1  0.180813  0.619138  0.180201  1
  Si  Si774  1  0.319129  0.119215  0.289117  1
  Si  Si775  1  0.057499  0.119817  0.247521  1
  Si  Si776  1  0.204566  0.880302  0.289190  1
  Si  Si777  1  0.295408  0.380297  0.180119  1
  Si  Si778  1  0.057498  0.880283  0.247518  1
  Si  Si779  1  0.295381  0.619820  0.180117  1
  Si  Si780  1  0.204567  0.119817  0.289191  1
  Si  Si781  1  0.058297  0.118836  0.163827  1
  Si  Si782  1  0.442536  0.500054  0.180102  1
  Si  Si783  1  0.557447  0.500067  0.180101  1
  Si  Si784  1  0.442208  0.619205  0.254244  1
  Si  Si785  1  0.557766  0.380923  0.254242  1
  Si  Si786  1  0.442212  0.380913  0.254243  1
  Si  Si787  1  0.557763  0.619217  0.254244  1
  Si  Si788  1  0.442480  0.619815  0.221786  1
  Si  Si789  1  0.557502  0.380296  0.221787  1
  Si  Si790  1  0.442484  0.380290  0.221787  1
  Si  Si791  1  0.557498  0.619826  0.221784  1
  Si  Si792  1  0.499989  0.881275  0.288961  1
  Si  Si793  1  0.499984  0.118838  0.288961  1
  Si  Si794  1  0.557501  0.880927  0.180116  1
  Si  Si795  1  0.442487  0.880926  0.180116  1
  Si  Si796  1  0.442483  0.119198  0.180116  1
  Si  Si797  1  0.557495  0.119203  0.180116  1
  Si  Si798  1  0.607151  0.691183  0.194182  1
  Si  Si799  1  0.392830  0.691168  0.194182  1
  Si  Si800  1  0.392835  0.308931  0.194184  1
  Si  Si801  1  0.607145  0.308946  0.194183  1
  Si  Si802  1  0.590459  0.250076  0.279844  1
  Si  Si803  1  0.409504  0.750059  0.279847  1
  Si  Si804  1  0.590483  0.750082  0.279847  1
  Si  Si805  1  0.409506  0.250061  0.279847  1
  Si  Si806  1  0.942481  0.380929  0.289189  1
  Si  Si807  1  0.892836  0.808937  0.275120  1
  Si  Si808  1  0.941683  0.118830  0.163824  1
  Si  Si809  1  0.942536  -0.000000  0.289203  1
  Si  Si810  1  0.892832  0.191172  0.275123  1
  Si  Si811  1  0.909508  0.250049  0.189460  1
  Si  Si812  1  0.909505  0.750054  0.189460  1
  Si  Si813  1  0.942484  0.619202  0.289189  1
  Si  Si814  1  0.819130  0.619209  0.180188  1
  Si  Si815  1  0.680814  0.119151  0.289102  1
  Si  Si816  1  0.942216  0.880903  0.215064  1
  Si  Si817  1  0.680857  0.880869  0.289117  1
  Si  Si818  1  0.819150  0.380911  0.180197  1
  Si  Si819  1  0.942208  0.119194  0.215062  1
  Si  Si820  1  0.704566  0.619809  0.180114  1
  Si  Si821  1  0.795381  0.119822  0.289189  1
  Si  Si822  1  0.942484  0.880282  0.247520  1
  Si  Si823  1  0.795410  0.880296  0.289188  1
  Si  Si824  1  0.704585  0.380294  0.180117  1
  Si  Si825  1  0.942481  0.119820  0.247519  1
  Si  Si826  1  0.941681  0.881262  0.163823  1
  Si  Si827  1  0.000000  0.381264  0.180345  1
  Si  Si828  1  0.000000  0.618825  0.180344  1
  Si  Si829  1  0.057445  -0.000000  0.321760  1
  Si  Si830  1  0.057497  0.619191  0.321776  1
  Si  Si831  1  0.057496  0.119809  0.363444  1
  Si  Si832  1  0.057496  0.380919  0.321776  1
  Si  Si833  1  0.090469  0.250049  0.421503  1
  Si  Si834  1  0.204577  0.880286  0.321775  1
  Si  Si835  1  0.090475  0.750039  0.421502  1
  Si  Si836  1  0.295410  0.380286  0.430844  1
  Si  Si837  1  0.057495  0.880280  0.363443  1
  Si  Si838  1  0.107152  0.808935  0.335841  1
  Si  Si839  1  0.107149  0.191168  0.335841  1
  Si  Si840  1  0.319137  0.119199  0.321857  1
  Si  Si841  1  0.180844  0.619193  0.430773  1
  Si  Si842  1  0.057761  0.880895  0.395900  1
  Si  Si843  1  0.180842  0.380901  0.430766  1
  Si  Si844  1  0.319134  0.880915  0.321856  1
  Si  Si845  1  0.057764  0.119191  0.395901  1
  Si  Si846  1  0.204579  0.119830  0.321776  1
  Si  Si847  1  0.295397  0.619824  0.430846  1
  Si  Si848  1  0.442536  0.500044  0.430859  1
  Si  Si849  1  0.590472  0.250055  0.331117  1
  Si  Si850  1  0.557446  0.500048  0.430858  1
  Si  Si851  1  0.557761  0.619202  0.356719  1
  Si  Si852  1  0.442204  0.380895  0.356719  1
  Si  Si853  1  0.557765  0.380908  0.356720  1
  Si  Si854  1  0.442204  0.619203  0.356718  1
  Si  Si855  1  0.557495  0.619826  0.389175  1
  Si  Si856  1  0.442486  0.380286  0.389176  1
  Si  Si857  1  0.557496  0.380285  0.389176  1
  Si  Si858  1  0.442485  0.619812  0.389176  1
  Si  Si859  1  0.409503  0.750061  0.331115  1
  Si  Si860  1  0.590469  0.750055  0.331116  1
  Si  Si861  1  0.499988  0.881276  0.322001  1
  Si  Si862  1  0.409507  0.250045  0.331115  1
  Si  Si863  1  0.558297  0.618842  0.305480  1
  Si  Si864  1  0.499994  0.118836  0.322001  1
  Si  Si865  1  0.442485  0.880904  0.430844  1
  Si  Si866  1  0.557500  0.880917  0.430844  1
  Si  Si867  1  0.557496  0.119189  0.430844  1
  Si  Si868  1  0.442482  0.119180  0.430844  1
  Si  Si869  1  0.392829  0.691155  0.416779  1
  Si  Si870  1  0.607148  0.691169  0.416777  1
  Si  Si871  1  0.607149  0.308933  0.416778  1
  Si  Si872  1  0.392839  0.308922  0.416778  1
  Si  Si873  1  0.441682  0.381277  0.305482  1
  Si  Si874  1  0.441680  0.618837  0.305482  1
  Si  Si875  1  0.558298  0.381273  0.305483  1
  Si  Si876  1  0.942535  -0.000000  0.321759  1
  Si  Si877  1  0.942209  0.119192  0.395900  1
  Si  Si878  1  0.819140  0.380896  0.430770  1
  Si  Si879  1  0.680840  0.880914  0.321854  1
  Si  Si880  1  0.942208  0.880896  0.395899  1
  Si  Si881  1  0.680841  0.119211  0.321843  1
  Si  Si882  1  0.819134  0.619187  0.430762  1
  Si  Si883  1  0.942481  0.119813  0.363442  1
  Si  Si884  1  0.704580  0.380275  0.430845  1
  Si  Si885  1  0.795405  0.880304  0.321775  1
  Si  Si886  1  0.942479  0.880285  0.363442  1
  Si  Si887  1  0.795394  0.119834  0.321771  1
  Si  Si888  1  0.704574  0.619811  0.430842  1
  Si  Si889  1  0.942482  0.380922  0.321775  1
  Si  Si890  1  0.942485  0.619194  0.321774  1
  Si  Si891  1  0.892823  0.191168  0.335839  1
  Si  Si892  1  0.892835  0.808935  0.335840  1
  Si  Si893  1  0.909507  0.250047  0.421502  1
  Si  Si894  1  0.909505  0.750047  0.421502  1
  Si  Si895  1  -0.000000  0.381265  0.430619  1
  Si  Si896  1  0.000000  0.618831  0.430618  1
  Si  Si897  1  0.090488  0.250071  0.472772  1
  Si  Si898  1  0.057494  0.380915  0.572503  1
  Si  Si899  1  0.058296  0.881267  0.447136  1
  Si  Si900  1  0.057446  0.000000  0.572518  1
  Si  Si901  1  0.090456  0.750055  0.472773  1
  Si  Si902  1  0.107149  0.191175  0.558436  1
  Si  Si903  1  0.057496  0.619199  0.572503  1
  Si  Si904  1  0.107147  0.808942  0.558435  1
  Si  Si905  1  0.057764  0.119217  0.498375  1
  Si  Si906  1  0.319128  0.880904  0.572430  1
  Si  Si907  1  0.180855  0.380863  0.463503  1
  Si  Si908  1  0.057775  0.880910  0.498374  1
  Si  Si909  1  0.180813  0.619138  0.463514  1
  Si  Si910  1  0.319129  0.119215  0.572430  1
  Si  Si911  1  0.057499  0.119817  0.530835  1
  Si  Si912  1  0.204566  0.880302  0.572504  1
  Si  Si913  1  0.295408  0.380297  0.463433  1
  Si  Si914  1  0.057498  0.880283  0.530832  1
  Si  Si915  1  0.295381  0.619820  0.463430  1
  Si  Si916  1  0.204567  0.119817  0.572504  1
  Si  Si917  1  0.058297  0.118836  0.447140  1
  Si  Si918  1  0.442536  0.500054  0.463415  1
  Si  Si919  1  0.557447  0.500067  0.463414  1
  Si  Si920  1  0.442208  0.619205  0.537557  1
  Si  Si921  1  0.557766  0.380923  0.537556  1
  Si  Si922  1  0.442212  0.380913  0.537556  1
  Si  Si923  1  0.557763  0.619217  0.537558  1
  Si  Si924  1  0.442480  0.619815  0.505100  1
  Si  Si925  1  0.557502  0.380296  0.505100  1
  Si  Si926  1  0.442484  0.380290  0.505100  1
  Si  Si927  1  0.557498  0.619826  0.505098  1
  Si  Si928  1  0.499989  0.881275  0.572274  1
  Si  Si929  1  0.499984  0.118838  0.572274  1
  Si  Si930  1  0.557501  0.880927  0.463429  1
  Si  Si931  1  0.442487  0.880926  0.463429  1
  Si  Si932  1  0.442483  0.119198  0.463429  1
  Si  Si933  1  0.557495  0.119203  0.463429  1
  Si  Si934  1  0.607151  0.691183  0.477495  1
  Si  Si935  1  0.392830  0.691168  0.477495  1
  Si  Si936  1  0.392835  0.308931  0.477498  1
  Si  Si937  1  0.607145  0.308946  0.477497  1
  Si  Si938  1  0.590459  0.250076  0.563157  1
  Si  Si939  1  0.409504  0.750059  0.563161  1
  Si  Si940  1  0.590483  0.750082  0.563160  1
  Si  Si941  1  0.409506  0.250061  0.563160  1
  Si  Si942  1  0.942481  0.380929  0.572503  1
  Si  Si943  1  0.892836  0.808937  0.558434  1
  Si  Si944  1  0.941683  0.118830  0.447138  1
  Si  Si945  1  0.942536  0.000000  0.572516  1
  Si  Si946  1  0.892832  0.191172  0.558436  1
  Si  Si947  1  0.909508  0.250049  0.472773  1
  Si  Si948  1  0.909505  0.750054  0.472773  1
  Si  Si949  1  0.942484  0.619202  0.572503  1
  Si  Si950  1  0.819130  0.619209  0.463501  1
  Si  Si951  1  0.680814  0.119151  0.572415  1
  Si  Si952  1  0.942216  0.880903  0.498377  1
  Si  Si953  1  0.680857  0.880869  0.572430  1
  Si  Si954  1  0.819150  0.380911  0.463510  1
  Si  Si955  1  0.942208  0.119194  0.498375  1
  Si  Si956  1  0.704566  0.619809  0.463427  1
  Si  Si957  1  0.795381  0.119822  0.572503  1
  Si  Si958  1  0.942484  0.880282  0.530833  1
  Si  Si959  1  0.795410  0.880296  0.572501  1
  Si  Si960  1  0.704585  0.380294  0.463430  1
  Si  Si961  1  0.942481  0.119820  0.530833  1
  Si  Si962  1  0.941681  0.881262  0.447137  1
  Si  Si963  1  0.000000  0.381264  0.463658  1
  Si  Si964  1  0.000000  0.618825  0.463658  1
  Si  Si965  1  0.057445  0.000000  0.605074  1
  Si  Si966  1  0.057497  0.619191  0.605089  1
  Si  Si967  1  0.057496  0.119809  0.646757  1
  Si  Si968  1  0.057496  0.380919  0.605089  1
  Si  Si969  1  0.090469  0.250049  0.704817  1
  Si  Si970  1  0.204577  0.880286  0.605089  1
  Si  Si971  1  0.090475  0.750039  0.704816  1
  Si  Si972  1  0.295410  0.380286  0.714157  1
  Si  Si973  1  0.057495  0.880280  0.646756  1
  Si  Si974  1  0.107152  0.808935  0.619154  1
  Si  Si975  1  0.107149  0.191168  0.619155  1
  Si  Si976  1  0.319137  0.119199  0.605170  1
  Si  Si977  1  0.180844  0.619193  0.714086  1
  Si  Si978  1  0.057761  0.880895  0.679213  1
  Si  Si979  1  0.180842  0.380901  0.714079  1
  Si  Si980  1  0.319134  0.880915  0.605169  1
  Si  Si981  1  0.057764  0.119191  0.679214  1
  Si  Si982  1  0.204579  0.119830  0.605089  1
  Si  Si983  1  0.295397  0.619824  0.714160  1
  Si  Si984  1  0.442536  0.500044  0.714173  1
  Si  Si985  1  0.590472  0.250055  0.614431  1
  Si  Si986  1  0.557446  0.500048  0.714172  1
  Si  Si987  1  0.557761  0.619202  0.640033  1
  Si  Si988  1  0.442204  0.380895  0.640032  1
  Si  Si989  1  0.557765  0.380908  0.640034  1
  Si  Si990  1  0.442204  0.619203  0.640031  1
  Si  Si991  1  0.557495  0.619826  0.672488  1
  Si  Si992  1  0.442486  0.380286  0.672489  1
  Si  Si993  1  0.557496  0.380285  0.672489  1
  Si  Si994  1  0.442485  0.619812  0.672489  1
  Si  Si995  1  0.409503  0.750061  0.614428  1
  Si  Si996  1  0.590469  0.750055  0.614429  1
  Si  Si997  1  0.499988  0.881276  0.605315  1
  Si  Si998  1  0.409507  0.250045  0.614428  1
  Si  Si999  1  0.558297  0.618842  0.588793  1
  Si  Si1000  1  0.499994  0.118836  0.605314  1
  Si  Si1001  1  0.442485  0.880904  0.714157  1
  Si  Si1002  1  0.557500  0.880917  0.714157  1
  Si  Si1003  1  0.557496  0.119189  0.714157  1
  Si  Si1004  1  0.442482  0.119180  0.714158  1
  Si  Si1005  1  0.392829  0.691155  0.700092  1
  Si  Si1006  1  0.607148  0.691169  0.700090  1
  Si  Si1007  1  0.607149  0.308933  0.700091  1
  Si  Si1008  1  0.392839  0.308922  0.700091  1
  Si  Si1009  1  0.441682  0.381277  0.588795  1
  Si  Si1010  1  0.441680  0.618837  0.588795  1
  Si  Si1011  1  0.558298  0.381273  0.588796  1
  Si  Si1012  1  0.942535  -0.000000  0.605073  1
  Si  Si1013  1  0.942209  0.119192  0.679213  1
  Si  Si1014  1  0.819140  0.380896  0.714083  1
  Si  Si1015  1  0.680840  0.880914  0.605168  1
  Si  Si1016  1  0.942208  0.880896  0.679212  1
  Si  Si1017  1  0.680841  0.119211  0.605157  1
  Si  Si1018  1  0.819134  0.619187  0.714075  1
  Si  Si1019  1  0.942481  0.119813  0.646755  1
  Si  Si1020  1  0.704580  0.380275  0.714158  1
  Si  Si1021  1  0.795405  0.880304  0.605088  1
  Si  Si1022  1  0.942479  0.880285  0.646756  1
  Si  Si1023  1  0.795394  0.119834  0.605084  1
  Si  Si1024  1  0.704574  0.619811  0.714155  1
  Si  Si1025  1  0.942482  0.380922  0.605088  1
  Si  Si1026  1  0.942485  0.619194  0.605087  1
  Si  Si1027  1  0.892823  0.191168  0.619152  1
  Si  Si1028  1  0.892835  0.808935  0.619153  1
  Si  Si1029  1  0.909507  0.250047  0.704816  1
  Si  Si1030  1  0.909505  0.750047  0.704816  1
  Si  Si1031  1  0.000000  0.381265  0.713932  1
  Si  Si1032  1  0.000000  0.618831  0.713931  1
  Si  Si1033  1  0.090488  0.250071  0.756085  1
  Si  Si1034  1  0.058296  0.881267  0.730450  1
  Si  Si1035  1  0.090456  0.750055  0.756086  1
  Si  Si1036  1  0.057764  0.119217  0.781688  1
  Si  Si1037  1  0.180855  0.380863  0.746817  1
  Si  Si1038  1  0.057775  0.880910  0.781688  1
  Si  Si1039  1  0.180813  0.619138  0.746828  1
  Si  Si1040  1  0.057499  0.119817  0.814148  1
  Si  Si1041  1  0.295408  0.380297  0.746746  1
  Si  Si1042  1  0.057498  0.880283  0.814145  1
  Si  Si1043  1  0.295381  0.619820  0.746743  1
  Si  Si1044  1  0.058297  0.118836  0.730453  1
  Si  Si1045  1  0.442536  0.500054  0.746729  1
  Si  Si1046  1  0.557447  0.500067  0.746728  1
  Si  Si1047  1  0.442208  0.619205  0.820870  1
  Si  Si1048  1  0.557766  0.380923  0.820869  1
  Si  Si1049  1  0.442212  0.380913  0.820870  1
  Si  Si1050  1  0.557763  0.619217  0.820871  1
  Si  Si1051  1  0.442480  0.619815  0.788413  1
  Si  Si1052  1  0.557502  0.380296  0.788413  1
  Si  Si1053  1  0.442484  0.380290  0.788413  1
  Si  Si1054  1  0.557498  0.619826  0.788411  1
  Si  Si1055  1  0.557501  0.880927  0.746743  1
  Si  Si1056  1  0.442487  0.880926  0.746743  1
  Si  Si1057  1  0.442483  0.119198  0.746743  1
  Si  Si1058  1  0.557495  0.119203  0.746742  1
  Si  Si1059  1  0.607151  0.691183  0.760808  1
  Si  Si1060  1  0.392830  0.691168  0.760808  1
  Si  Si1061  1  0.392835  0.308931  0.760811  1
  Si  Si1062  1  0.607145  0.308946  0.760810  1
  Si  Si1063  1  0.941683  0.118830  0.730451  1
  Si  Si1064  1  0.909508  0.250049  0.756087  1
  Si  Si1065  1  0.909505  0.750054  0.756087  1
  Si  Si1066  1  0.819130  0.619209  0.746815  1
  Si  Si1067  1  0.942216  0.880903  0.781690  1
  Si  Si1068  1  0.819150  0.380911  0.746823  1
  Si  Si1069  1  0.942208  0.119194  0.781688  1
  Si  Si1070  1  0.704566  0.619809  0.746740  1
  Si  Si1071  1  0.942484  0.880282  0.814146  1
  Si  Si1072  1  0.704585  0.380294  0.746743  1
  Si  Si1073  1  0.942481  0.119820  0.814146  1
  Si  Si1074  1  0.941681  0.881262  0.730450  1
  Si  Si1075  1  -0.000000  0.381264  0.746972  1
  Si  Si1076  1  0.000000  0.618825  0.746971  1
  H  H1077  1  0.091915  0.826879  0.059032  1
  H  H1078  1  0.091914  0.173221  0.059034  1
  H  H1079  1  0.584209  0.692352  0.052864  1
  H  H1080  1  0.415755  0.307740  0.052864  1
  H  H1081  1  0.584209  0.307755  0.052865  1
  H  H1082  1  0.415754  0.692352  0.052863  1
  H  H1083  1  0.908062  0.173225  0.059032  1
  H  H1084  1  0.908056  0.826886  0.059033  1
  H  H1085  1  0.091917  0.173239  0.835244  1
  H  H1086  1  0.091913  0.826879  0.835243  1
  H  H1087  1  0.415747  0.692369  0.841409  1
  H  H1088  1  0.584225  0.307765  0.841407  1
  H  H1089  1  0.415756  0.307759  0.841410  1
  H  H1090  1  0.584219  0.692391  0.841411  1
  H  H1091  1  0.908071  0.826882  0.835242  1
  H  H1092  1  0.908070  0.173235  0.835243  1
