# generated using pymatgen
data_Si41H2O83
_symmetry_space_group_name_H-M   'P 1'
_cell_length_a   13.81540410
_cell_length_b   18.13110130
_cell_length_c   92.85944528
_cell_angle_alpha   90.00000000
_cell_angle_beta   90.00000000
_cell_angle_gamma   90.00000000
_symmetry_Int_Tables_number   1
_chemical_formula_structural   Si41H2O83
_chemical_formula_sum   'Si328 H16 O664'
_cell_volume   23260.2223458
_cell_formula_units_Z   8
loop_
 _symmetry_equiv_pos_site_id
 _symmetry_equiv_pos_as_xyz
  1  'x, y, z'
loop_
 _atom_site_type_symbol
 _atom_site_label
 _atom_site_symmetry_multiplicity
 _atom_site_fract_x
 _atom_site_fract_y
 _atom_site_fract_z
 _atom_site_occupancy
  O  O1  1  0.852103  0.638297  0.314630  1
  O  O2  1  0.147831  0.638308  0.314630  1
  O  O3  1  0.647840  0.861623  0.314626  1
  O  O4  1  0.352124  0.861635  0.314627  1
  O  O5  1  0.750003  0.749967  0.304680  1
  O  O6  1  0.250014  0.749957  0.304681  1
  O  O7  1  0.762327  0.629489  0.290724  1
  O  O8  1  0.237694  0.629465  0.290730  1
  O  O9  1  0.737706  0.870450  0.290726  1
  O  O10  1  0.262334  0.870430  0.290723  1
  O  O11  1  0.907173  0.710771  0.292715  1
  O  O12  1  0.092868  0.710772  0.292710  1
  O  O13  1  0.592868  0.789154  0.292707  1
  O  O14  1  0.407178  0.789153  0.292714  1
  O  O15  1  0.746375  0.506209  0.277800  1
  O  O16  1  0.253654  0.506172  0.277812  1
  O  O17  1  0.753679  0.993740  0.277809  1
  O  O18  1  0.246387  0.993716  0.277801  1
  O  O19  1  0.749805  0.625763  0.263372  1
  O  O20  1  0.250173  0.625716  0.263378  1
  O  O21  1  0.750182  0.874201  0.263374  1
  O  O22  1  0.249847  0.874172  0.263371  1
  O  O23  1  0.600962  0.593041  0.278582  1
  O  O24  1  0.399047  0.593029  0.278585  1
  O  O25  1  0.899066  0.906882  0.278581  1
  O  O26  1  0.100981  0.906872  0.278579  1
  O  O27  1  0.760916  0.870475  0.236268  1
  O  O28  1  0.239106  0.870438  0.236265  1
  O  O29  1  0.739080  0.629474  0.236267  1
  O  O30  1  0.260910  0.629448  0.236272  1
  O  O31  1  0.907535  0.954935  0.234717  1
  O  O32  1  0.092533  0.954947  0.234722  1
  O  O33  1  0.592506  0.544962  0.234725  1
  O  O34  1  0.407510  0.544975  0.234719  1
  O  O35  1  0.750049  0.749979  0.251004  1
  O  O36  1  0.250009  0.749943  0.251007  1
  O  O37  1  0.899769  0.660219  0.249234  1
  O  O38  1  0.100240  0.660211  0.249238  1
  O  O39  1  0.600253  0.839683  0.249235  1
  O  O40  1  0.399781  0.839668  0.249232  1
  O  O41  1  0.000000  0.544041  0.255912  1
  O  O42  1  0.499992  0.955861  0.255908  1
  O  O43  1  0.000000  0.905383  0.256381  1
  O  O44  1  0.499988  0.594522  0.256384  1
  O  O45  1  0.000000  0.657178  0.271455  1
  O  O46  1  0.500002  0.842733  0.271452  1
  O  O47  1  0.000000  0.793964  0.274858  1
  O  O48  1  0.499994  0.705946  0.274859  1
  O  O49  1  0.499966  0.084540  0.307873  1
  O  O50  1  0.000000  0.415395  0.307875  1
  O  O51  1  0.332774  0.079965  0.295448  1
  O  O52  1  0.667171  0.079983  0.295445  1
  O  O53  1  0.167141  0.419930  0.295448  1
  O  O54  1  0.832731  0.419972  0.295453  1
  O  O55  1  0.749841  0.125757  0.243329  1
  O  O56  1  0.250189  0.125723  0.243327  1
  O  O57  1  0.750169  0.374202  0.243330  1
  O  O58  1  0.249814  0.374174  0.243332  1
  O  O59  1  0.760902  0.370466  0.270437  1
  O  O60  1  0.239084  0.370442  0.270438  1
  O  O61  1  0.739104  0.129468  0.270435  1
  O  O62  1  0.260924  0.129448  0.270432  1
  O  O63  1  0.907521  0.454919  0.271990  1
  O  O64  1  0.092518  0.454958  0.271979  1
  O  O65  1  0.592536  0.044951  0.271977  1
  O  O66  1  0.407538  0.044979  0.271985  1
  O  O67  1  0.750034  0.249973  0.255698  1
  O  O68  1  0.250036  0.249947  0.255697  1
  O  O69  1  0.899787  0.160229  0.257469  1
  O  O70  1  0.100256  0.160227  0.257465  1
  O  O71  1  0.600242  0.339686  0.257468  1
  O  O72  1  0.399769  0.339692  0.257471  1
  O  O73  1  0.000000  0.044044  0.250792  1
  O  O74  1  0.499983  0.455864  0.250794  1
  O  O75  1  0.000000  0.405383  0.250322  1
  O  O76  1  0.500010  0.094522  0.250319  1
  O  O77  1  0.000000  0.157177  0.235249  1
  O  O78  1  0.500000  0.342732  0.235251  1
  O  O79  1  0.000000  0.705956  0.146322  1
  O  O80  1  0.127545  0.000000  0.189085  1
  O  O81  1  0.499949  0.584544  0.198830  1
  O  O82  1  0.000000  0.915398  0.198828  1
  O  O83  1  0.352075  0.638308  0.186093  1
  O  O84  1  0.647799  0.638311  0.186094  1
  O  O85  1  0.147817  0.861634  0.186091  1
  O  O86  1  0.852099  0.861636  0.186090  1
  O  O87  1  0.332758  0.579971  0.211256  1
  O  O88  1  0.667156  0.579984  0.211256  1
  O  O89  1  0.167186  0.919941  0.211254  1
  O  O90  1  0.832776  0.919965  0.211253  1
  O  O91  1  0.249914  0.749957  0.176143  1
  O  O92  1  0.749912  0.749985  0.176145  1
  O  O93  1  0.262240  0.629470  0.162191  1
  O  O94  1  0.737607  0.629501  0.162191  1
  O  O95  1  0.237594  0.870429  0.162185  1
  O  O96  1  0.762223  0.870466  0.162192  1
  O  O97  1  0.407068  0.710774  0.164175  1
  O  O98  1  0.592758  0.710777  0.164177  1
  O  O99  1  0.092745  0.789156  0.164177  1
  O  O100  1  0.907052  0.789161  0.164171  1
  O  O101  1  0.246259  0.506183  0.149272  1
  O  O102  1  0.753540  0.506216  0.149269  1
  O  O103  1  0.253537  0.993713  0.149263  1
  O  O104  1  0.746251  0.993756  0.149274  1
  O  O105  1  0.100871  0.593042  0.150048  1
  O  O106  1  0.898954  0.593049  0.150046  1
  O  O107  1  0.398949  0.906879  0.150043  1
  O  O108  1  0.600864  0.906892  0.150046  1
  O  O109  1  0.499921  0.793972  0.146322  1
  O  O110  1  0.872401  0.000000  0.189081  1
  O  O111  1  0.499999  0.205948  0.231844  1
  O  O112  1  0.000000  0.084540  0.179337  1
  O  O113  1  0.499949  0.415397  0.179340  1
  O  O114  1  0.852126  0.138309  0.192073  1
  O  O115  1  0.147844  0.138306  0.192074  1
  O  O116  1  0.647826  0.361634  0.192077  1
  O  O117  1  0.352101  0.361636  0.192077  1
  O  O118  1  0.832761  0.079993  0.166911  1
  O  O119  1  0.167167  0.079962  0.166912  1
  O  O120  1  0.667143  0.419967  0.166915  1
  O  O121  1  0.332735  0.419950  0.166914  1
  O  O122  1  0.750008  0.249979  0.202023  1
  O  O123  1  0.250006  0.249953  0.202024  1
  O  O124  1  0.762329  0.129495  0.215977  1
  O  O125  1  0.237696  0.129461  0.215975  1
  O  O126  1  0.737679  0.370454  0.215977  1
  O  O127  1  0.262306  0.370427  0.215981  1
  O  O128  1  0.907172  0.210775  0.213989  1
  O  O129  1  0.092864  0.210765  0.213994  1
  O  O130  1  0.592855  0.289149  0.213993  1
  O  O131  1  0.407161  0.289155  0.213991  1
  O  O132  1  0.746391  0.006210  0.228900  1
  O  O133  1  0.253675  0.006174  0.228895  1
  O  O134  1  0.753647  0.493743  0.228896  1
  O  O135  1  0.246360  0.493717  0.228901  1
  O  O136  1  0.600979  0.093045  0.228121  1
  O  O137  1  0.399062  0.093031  0.228119  1
  O  O138  1  0.899039  0.406882  0.228122  1
  O  O139  1  0.100952  0.406879  0.228124  1
  O  O140  1  0.000000  0.293965  0.231845  1
  O  O141  1  0.627520  0.499970  0.189086  1
  O  O142  1  0.372378  0.499972  0.189083  1
  O  O143  1  0.832752  0.579997  0.082722  1
  O  O144  1  0.167151  0.579957  0.082718  1
  O  O145  1  0.667174  0.919969  0.082716  1
  O  O146  1  0.332764  0.919947  0.082718  1
  O  O147  1  0.249737  0.625729  0.134839  1
  O  O148  1  0.750087  0.625763  0.134839  1
  O  O149  1  0.250092  0.874167  0.134833  1
  O  O150  1  0.749747  0.874217  0.134839  1
  O  O151  1  0.260819  0.870449  0.107728  1
  O  O152  1  0.739008  0.870475  0.107733  1
  O  O153  1  0.239009  0.629446  0.107732  1
  O  O154  1  0.760825  0.629484  0.107733  1
  O  O155  1  0.407388  0.954968  0.106188  1
  O  O156  1  0.592385  0.954925  0.106178  1
  O  O157  1  0.092386  0.544986  0.106182  1
  O  O158  1  0.907388  0.544964  0.106190  1
  O  O159  1  0.249897  0.749948  0.122467  1
  O  O160  1  0.749885  0.749985  0.122472  1
  O  O161  1  0.399675  0.660230  0.120700  1
  O  O162  1  0.600143  0.660235  0.120699  1
  O  O163  1  0.100141  0.839685  0.120696  1
  O  O164  1  0.899672  0.839693  0.120700  1
  O  O165  1  0.499914  0.544050  0.127375  1
  O  O166  1  0.000000  0.955873  0.127373  1
  O  O167  1  0.499922  0.905393  0.127845  1
  O  O168  1  0.000000  0.594531  0.127848  1
  O  O169  1  0.499918  0.657184  0.142918  1
  O  O170  1  0.000000  0.842742  0.142916  1
  O  O171  1  0.352092  0.138310  0.063537  1
  O  O172  1  0.647822  0.138296  0.063537  1
  O  O173  1  0.147783  0.361634  0.063540  1
  O  O174  1  0.852069  0.361627  0.063542  1
  O  O175  1  0.249894  0.249955  0.073486  1
  O  O176  1  0.749906  0.249973  0.073489  1
  O  O177  1  0.262215  0.129466  0.087436  1
  O  O178  1  0.737576  0.129496  0.087444  1
  O  O179  1  0.237588  0.370426  0.087444  1
  O  O180  1  0.762210  0.370459  0.087442  1
  O  O181  1  0.407036  0.210779  0.085458  1
  O  O182  1  0.592727  0.210772  0.085450  1
  O  O183  1  0.092738  0.289154  0.085455  1
  O  O184  1  0.907045  0.289160  0.085461  1
  O  O185  1  0.246249  0.006180  0.100356  1
  O  O186  1  0.253531  0.493712  0.100366  1
  O  O187  1  0.746243  0.493755  0.100359  1
  O  O188  1  0.249732  0.125727  0.114789  1
  O  O189  1  0.750101  0.125768  0.114796  1
  O  O190  1  0.250077  0.374173  0.114797  1
  O  O191  1  0.749739  0.374215  0.114794  1
  O  O192  1  0.100857  0.093037  0.099582  1
  O  O193  1  0.898941  0.093047  0.099585  1
  O  O194  1  0.398941  0.406875  0.099588  1
  O  O195  1  0.600856  0.406894  0.099587  1
  O  O196  1  0.260817  0.370447  0.141903  1
  O  O197  1  0.739008  0.370482  0.141900  1
  O  O198  1  0.239000  0.129448  0.141895  1
  O  O199  1  0.760822  0.129487  0.141901  1
  O  O200  1  0.407399  0.454948  0.143447  1
  O  O201  1  0.592396  0.454947  0.143450  1
  O  O202  1  0.092387  0.044985  0.143449  1
  O  O203  1  0.907391  0.044973  0.143442  1
  O  O204  1  0.249899  0.249949  0.127161  1
  O  O205  1  0.749866  0.249988  0.127163  1
  O  O206  1  0.399668  0.160220  0.128929  1
  O  O207  1  0.600139  0.160232  0.128933  1
  O  O208  1  0.100138  0.339681  0.128935  1
  O  O209  1  0.899667  0.339692  0.128933  1
  O  O210  1  0.499948  0.044052  0.122255  1
  O  O211  1  0.000000  0.455871  0.122259  1
  O  O212  1  0.499910  0.405388  0.121787  1
  O  O213  1  0.000000  0.094530  0.121783  1
  O  O214  1  0.499917  0.157187  0.106712  1
  O  O215  1  0.000000  0.342741  0.106716  1
  O  O216  1  0.499921  0.293971  0.103308  1
  O  O217  1  0.000000  0.205954  0.103309  1
  O  O218  1  0.753529  0.006214  0.100367  1
  O  O219  1  0.852103  0.638297  0.571702  1
  O  O220  1  0.147831  0.638308  0.571701  1
  O  O221  1  0.647840  0.861623  0.571698  1
  O  O222  1  0.352124  0.861635  0.571699  1
  O  O223  1  0.750003  0.749967  0.561751  1
  O  O224  1  0.250014  0.749957  0.561752  1
  O  O225  1  0.762327  0.629489  0.547796  1
  O  O226  1  0.237694  0.629465  0.547802  1
  O  O227  1  0.737706  0.870450  0.547798  1
  O  O228  1  0.262334  0.870430  0.547795  1
  O  O229  1  0.907173  0.710771  0.549787  1
  O  O230  1  0.092868  0.710772  0.549781  1
  O  O231  1  0.592868  0.789154  0.549779  1
  O  O232  1  0.407178  0.789153  0.549785  1
  O  O233  1  0.746375  0.506209  0.534872  1
  O  O234  1  0.253654  0.506172  0.534884  1
  O  O235  1  0.753679  0.993740  0.534880  1
  O  O236  1  0.246387  0.993716  0.534873  1
  O  O237  1  0.749805  0.625763  0.520444  1
  O  O238  1  0.250173  0.625716  0.520450  1
  O  O239  1  0.750182  0.874201  0.520446  1
  O  O240  1  0.249847  0.874172  0.520443  1
  O  O241  1  0.600962  0.593041  0.535654  1
  O  O242  1  0.399047  0.593029  0.535657  1
  O  O243  1  0.899066  0.906882  0.535653  1
  O  O244  1  0.100981  0.906872  0.535651  1
  O  O245  1  0.760916  0.870475  0.493339  1
  O  O246  1  0.239106  0.870438  0.493337  1
  O  O247  1  0.739080  0.629474  0.493339  1
  O  O248  1  0.260910  0.629448  0.493344  1
  O  O249  1  0.907535  0.954935  0.491789  1
  O  O250  1  0.092533  0.954947  0.491793  1
  O  O251  1  0.592506  0.544962  0.491796  1
  O  O252  1  0.407510  0.544975  0.491791  1
  O  O253  1  0.750049  0.749979  0.508076  1
  O  O254  1  0.250009  0.749943  0.508079  1
  O  O255  1  0.899769  0.660219  0.506306  1
  O  O256  1  0.100240  0.660211  0.506310  1
  O  O257  1  0.600253  0.839683  0.506307  1
  O  O258  1  0.399781  0.839668  0.506304  1
  O  O259  1  0.000000  0.544041  0.512984  1
  O  O260  1  0.499992  0.955861  0.512980  1
  O  O261  1  0.000000  0.905383  0.513452  1
  O  O262  1  0.499988  0.594522  0.513456  1
  O  O263  1  0.000000  0.657178  0.528527  1
  O  O264  1  0.500002  0.842733  0.528524  1
  O  O265  1  0.000000  0.793964  0.531930  1
  O  O266  1  0.499994  0.705946  0.531931  1
  O  O267  1  0.499966  0.084540  0.564945  1
  O  O268  1  0.000000  0.415395  0.564947  1
  O  O269  1  0.332774  0.079965  0.552520  1
  O  O270  1  0.667171  0.079983  0.552517  1
  O  O271  1  0.167141  0.419930  0.552520  1
  O  O272  1  0.832731  0.419972  0.552525  1
  O  O273  1  0.749841  0.125757  0.500401  1
  O  O274  1  0.250189  0.125723  0.500398  1
  O  O275  1  0.750169  0.374202  0.500402  1
  O  O276  1  0.249814  0.374174  0.500404  1
  O  O277  1  0.760902  0.370466  0.527508  1
  O  O278  1  0.239084  0.370442  0.527510  1
  O  O279  1  0.739104  0.129468  0.527507  1
  O  O280  1  0.260924  0.129448  0.527504  1
  O  O281  1  0.907521  0.454919  0.529062  1
  O  O282  1  0.092518  0.454958  0.529051  1
  O  O283  1  0.592536  0.044951  0.529049  1
  O  O284  1  0.407538  0.044979  0.529057  1
  O  O285  1  0.750034  0.249973  0.512770  1
  O  O286  1  0.250036  0.249947  0.512769  1
  O  O287  1  0.899787  0.160229  0.514540  1
  O  O288  1  0.100256  0.160227  0.514537  1
  O  O289  1  0.600242  0.339686  0.514540  1
  O  O290  1  0.399769  0.339692  0.514542  1
  O  O291  1  0.000000  0.044044  0.507864  1
  O  O292  1  0.499983  0.455864  0.507866  1
  O  O293  1  0.000000  0.405383  0.507394  1
  O  O294  1  0.500010  0.094522  0.507391  1
  O  O295  1  0.000000  0.157177  0.492321  1
  O  O296  1  0.500000  0.342732  0.492322  1
  O  O297  1  0.000000  0.705956  0.403394  1
  O  O298  1  0.127545  0.000000  0.446157  1
  O  O299  1  0.499949  0.584544  0.455902  1
  O  O300  1  0.000000  0.915398  0.455900  1
  O  O301  1  0.352075  0.638308  0.443165  1
  O  O302  1  0.647799  0.638311  0.443166  1
  O  O303  1  0.147817  0.861634  0.443163  1
  O  O304  1  0.852099  0.861636  0.443162  1
  O  O305  1  0.332758  0.579971  0.468327  1
  O  O306  1  0.667156  0.579984  0.468328  1
  O  O307  1  0.167186  0.919941  0.468326  1
  O  O308  1  0.832776  0.919965  0.468325  1
  O  O309  1  0.249914  0.749957  0.433214  1
  O  O310  1  0.749912  0.749985  0.433217  1
  O  O311  1  0.262240  0.629470  0.419263  1
  O  O312  1  0.737607  0.629501  0.419263  1
  O  O313  1  0.237594  0.870429  0.419257  1
  O  O314  1  0.762223  0.870466  0.419263  1
  O  O315  1  0.407068  0.710774  0.421246  1
  O  O316  1  0.592758  0.710777  0.421249  1
  O  O317  1  0.092745  0.789156  0.421249  1
  O  O318  1  0.907052  0.789161  0.421243  1
  O  O319  1  0.246259  0.506183  0.406344  1
  O  O320  1  0.753540  0.506216  0.406341  1
  O  O321  1  0.253537  0.993713  0.406335  1
  O  O322  1  0.746251  0.993756  0.406346  1
  O  O323  1  0.100871  0.593042  0.407120  1
  O  O324  1  0.898954  0.593049  0.407118  1
  O  O325  1  0.398949  0.906879  0.407114  1
  O  O326  1  0.600864  0.906892  0.407118  1
  O  O327  1  0.499921  0.793972  0.403394  1
  O  O328  1  0.872401  0.000000  0.446153  1
  O  O329  1  0.499999  0.205948  0.488916  1
  O  O330  1  0.000000  0.084540  0.436409  1
  O  O331  1  0.499949  0.415397  0.436412  1
  O  O332  1  0.852126  0.138309  0.449145  1
  O  O333  1  0.147844  0.138306  0.449145  1
  O  O334  1  0.647826  0.361634  0.449149  1
  O  O335  1  0.352101  0.361636  0.449149  1
  O  O336  1  0.832761  0.079993  0.423983  1
  O  O337  1  0.167167  0.079962  0.423984  1
  O  O338  1  0.667143  0.419967  0.423987  1
  O  O339  1  0.332735  0.419950  0.423986  1
  O  O340  1  0.750008  0.249979  0.459094  1
  O  O341  1  0.250006  0.249953  0.459096  1
  O  O342  1  0.762329  0.129495  0.473049  1
  O  O343  1  0.237696  0.129461  0.473046  1
  O  O344  1  0.737679  0.370454  0.473049  1
  O  O345  1  0.262306  0.370427  0.473053  1
  O  O346  1  0.907172  0.210775  0.471061  1
  O  O347  1  0.092864  0.210765  0.471066  1
  O  O348  1  0.592855  0.289149  0.471065  1
  O  O349  1  0.407161  0.289155  0.471063  1
  O  O350  1  0.746391  0.006210  0.485972  1
  O  O351  1  0.253675  0.006174  0.485966  1
  O  O352  1  0.753647  0.493743  0.485967  1
  O  O353  1  0.246360  0.493717  0.485973  1
  O  O354  1  0.600979  0.093045  0.485193  1
  O  O355  1  0.399062  0.093031  0.485191  1
  O  O356  1  0.899039  0.406882  0.485194  1
  O  O357  1  0.100952  0.406879  0.485196  1
  O  O358  1  0.000000  0.293965  0.488917  1
  O  O359  1  0.627520  0.499970  0.446158  1
  O  O360  1  0.372378  0.499972  0.446155  1
  O  O361  1  0.372399  0.000000  0.317622  1
  O  O362  1  0.000000  0.584540  0.327366  1
  O  O363  1  0.499973  0.915396  0.327364  1
  O  O364  1  0.832752  0.579997  0.339794  1
  O  O365  1  0.167151  0.579957  0.339790  1
  O  O366  1  0.667174  0.919969  0.339788  1
  O  O367  1  0.332764  0.919947  0.339790  1
  O  O368  1  0.249737  0.625729  0.391911  1
  O  O369  1  0.750087  0.625763  0.391911  1
  O  O370  1  0.250092  0.874167  0.391905  1
  O  O371  1  0.749747  0.874217  0.391911  1
  O  O372  1  0.260819  0.870449  0.364799  1
  O  O373  1  0.739008  0.870475  0.364805  1
  O  O374  1  0.239009  0.629446  0.364804  1
  O  O375  1  0.760825  0.629484  0.364805  1
  O  O376  1  0.407388  0.954968  0.363260  1
  O  O377  1  0.592385  0.954925  0.363250  1
  O  O378  1  0.092386  0.544986  0.363254  1
  O  O379  1  0.907388  0.544964  0.363262  1
  O  O380  1  0.249897  0.749948  0.379539  1
  O  O381  1  0.749885  0.749985  0.379544  1
  O  O382  1  0.399675  0.660230  0.377772  1
  O  O383  1  0.600143  0.660235  0.377771  1
  O  O384  1  0.100141  0.839685  0.377768  1
  O  O385  1  0.899672  0.839693  0.377771  1
  O  O386  1  0.499914  0.544050  0.384447  1
  O  O387  1  0.000000  0.955873  0.384445  1
  O  O388  1  0.499922  0.905393  0.384917  1
  O  O389  1  0.000000  0.594531  0.384920  1
  O  O390  1  0.499918  0.657184  0.399990  1
  O  O391  1  0.000000  0.842742  0.399988  1
  O  O392  1  0.627541  0.000000  0.317614  1
  O  O393  1  0.352092  0.138310  0.320609  1
  O  O394  1  0.647822  0.138296  0.320609  1
  O  O395  1  0.147783  0.361634  0.320612  1
  O  O396  1  0.852069  0.361627  0.320614  1
  O  O397  1  0.249894  0.249955  0.330557  1
  O  O398  1  0.749906  0.249973  0.330561  1
  O  O399  1  0.262215  0.129466  0.344508  1
  O  O400  1  0.737576  0.129496  0.344516  1
  O  O401  1  0.237588  0.370426  0.344516  1
  O  O402  1  0.762210  0.370459  0.344514  1
  O  O403  1  0.407036  0.210779  0.342530  1
  O  O404  1  0.592727  0.210772  0.342522  1
  O  O405  1  0.092738  0.289154  0.342527  1
  O  O406  1  0.907045  0.289160  0.342533  1
  O  O407  1  0.246249  0.006180  0.357428  1
  O  O408  1  0.253531  0.493712  0.357437  1
  O  O409  1  0.746243  0.493755  0.357431  1
  O  O410  1  0.249732  0.125727  0.371861  1
  O  O411  1  0.750101  0.125768  0.371868  1
  O  O412  1  0.250077  0.374173  0.371869  1
  O  O413  1  0.749739  0.374215  0.371866  1
  O  O414  1  0.100857  0.093037  0.356654  1
  O  O415  1  0.898941  0.093047  0.356657  1
  O  O416  1  0.398941  0.406875  0.356660  1
  O  O417  1  0.600856  0.406894  0.356659  1
  O  O418  1  0.260817  0.370447  0.398975  1
  O  O419  1  0.739008  0.370482  0.398972  1
  O  O420  1  0.239000  0.129448  0.398967  1
  O  O421  1  0.760822  0.129487  0.398973  1
  O  O422  1  0.407399  0.454948  0.400519  1
  O  O423  1  0.592396  0.454947  0.400522  1
  O  O424  1  0.092387  0.044985  0.400521  1
  O  O425  1  0.907391  0.044973  0.400514  1
  O  O426  1  0.249899  0.249949  0.384233  1
  O  O427  1  0.749866  0.249988  0.384235  1
  O  O428  1  0.399668  0.160220  0.386001  1
  O  O429  1  0.600139  0.160232  0.386005  1
  O  O430  1  0.100138  0.339681  0.386007  1
  O  O431  1  0.899667  0.339692  0.386004  1
  O  O432  1  0.499948  0.044052  0.379327  1
  O  O433  1  -0.000000  0.455871  0.379331  1
  O  O434  1  0.499910  0.405388  0.378859  1
  O  O435  1  0.000000  0.094530  0.378855  1
  O  O436  1  0.499917  0.157187  0.363784  1
  O  O437  1  -0.000000  0.342741  0.363788  1
  O  O438  1  0.499921  0.293971  0.360380  1
  O  O439  1  -0.000000  0.205954  0.360381  1
  O  O440  1  0.753529  0.006214  0.357439  1
  O  O441  1  0.127517  0.499970  0.317616  1
  O  O442  1  0.872373  0.499962  0.317626  1
  O  O443  1  0.852103  0.638297  0.828773  1
  O  O444  1  0.147831  0.638308  0.828773  1
  O  O445  1  0.647840  0.861623  0.828770  1
  O  O446  1  0.352124  0.861635  0.828771  1
  O  O447  1  0.750003  0.749967  0.818823  1
  O  O448  1  0.250014  0.749957  0.818824  1
  O  O449  1  0.762327  0.629489  0.804868  1
  O  O450  1  0.237694  0.629465  0.804874  1
  O  O451  1  0.737706  0.870450  0.804870  1
  O  O452  1  0.262334  0.870430  0.804867  1
  O  O453  1  0.907173  0.710771  0.806859  1
  O  O454  1  0.092868  0.710772  0.806853  1
  O  O455  1  0.592868  0.789154  0.806851  1
  O  O456  1  0.407178  0.789153  0.806857  1
  O  O457  1  0.746375  0.506209  0.791944  1
  O  O458  1  0.253654  0.506172  0.791956  1
  O  O459  1  0.753679  0.993740  0.791952  1
  O  O460  1  0.246387  0.993716  0.791945  1
  O  O461  1  0.749805  0.625763  0.777516  1
  O  O462  1  0.250173  0.625716  0.777522  1
  O  O463  1  0.750182  0.874201  0.777518  1
  O  O464  1  0.249847  0.874172  0.777514  1
  O  O465  1  0.600962  0.593041  0.792726  1
  O  O466  1  0.399047  0.593029  0.792728  1
  O  O467  1  0.899066  0.906882  0.792725  1
  O  O468  1  0.100981  0.906872  0.792723  1
  O  O469  1  0.760916  0.870475  0.750411  1
  O  O470  1  0.239106  0.870438  0.750409  1
  O  O471  1  0.739080  0.629474  0.750411  1
  O  O472  1  0.260910  0.629448  0.750415  1
  O  O473  1  0.907535  0.954935  0.748860  1
  O  O474  1  0.092533  0.954947  0.748865  1
  O  O475  1  0.592506  0.544962  0.748868  1
  O  O476  1  0.407510  0.544975  0.748862  1
  O  O477  1  0.750049  0.749979  0.765148  1
  O  O478  1  0.250009  0.749943  0.765151  1
  O  O479  1  0.899769  0.660219  0.763378  1
  O  O480  1  0.100240  0.660211  0.763382  1
  O  O481  1  0.600253  0.839683  0.763379  1
  O  O482  1  0.399781  0.839668  0.763376  1
  O  O483  1  -0.000000  0.544041  0.770056  1
  O  O484  1  0.499992  0.955861  0.770052  1
  O  O485  1  0.000000  0.905383  0.770524  1
  O  O486  1  0.499988  0.594522  0.770528  1
  O  O487  1  -0.000000  0.657178  0.785599  1
  O  O488  1  0.500002  0.842733  0.785595  1
  O  O489  1  0.000000  0.793964  0.789002  1
  O  O490  1  0.499994  0.705946  0.789002  1
  O  O491  1  0.332774  0.079965  0.809592  1
  O  O492  1  0.667171  0.079983  0.809589  1
  O  O493  1  0.167141  0.419930  0.809592  1
  O  O494  1  0.832731  0.419972  0.809597  1
  O  O495  1  0.749841  0.125757  0.757473  1
  O  O496  1  0.250189  0.125723  0.757470  1
  O  O497  1  0.750169  0.374202  0.757474  1
  O  O498  1  0.249814  0.374174  0.757476  1
  O  O499  1  0.760902  0.370466  0.784580  1
  O  O500  1  0.239084  0.370442  0.784582  1
  O  O501  1  0.739104  0.129468  0.784578  1
  O  O502  1  0.260924  0.129448  0.784576  1
  O  O503  1  0.907521  0.454919  0.786134  1
  O  O504  1  0.092518  0.454958  0.786123  1
  O  O505  1  0.592536  0.044951  0.786121  1
  O  O506  1  0.407538  0.044979  0.786129  1
  O  O507  1  0.750034  0.249973  0.769842  1
  O  O508  1  0.250036  0.249947  0.769841  1
  O  O509  1  0.899787  0.160229  0.771612  1
  O  O510  1  0.100256  0.160227  0.771609  1
  O  O511  1  0.600242  0.339686  0.771612  1
  O  O512  1  0.399769  0.339692  0.771614  1
  O  O513  1  -0.000000  0.044044  0.764936  1
  O  O514  1  0.499983  0.455864  0.764938  1
  O  O515  1  0.000000  0.405383  0.764466  1
  O  O516  1  0.500010  0.094522  0.764463  1
  O  O517  1  0.000000  0.157177  0.749393  1
  O  O518  1  0.500000  0.342732  0.749394  1
  O  O519  1  -0.000000  0.705956  0.660466  1
  O  O520  1  0.127545  -0.000000  0.703229  1
  O  O521  1  0.499949  0.584544  0.712974  1
  O  O522  1  0.000000  0.915398  0.712972  1
  O  O523  1  0.352075  0.638308  0.700237  1
  O  O524  1  0.647799  0.638311  0.700238  1
  O  O525  1  0.147817  0.861634  0.700234  1
  O  O526  1  0.852099  0.861636  0.700234  1
  O  O527  1  0.332758  0.579971  0.725399  1
  O  O528  1  0.667156  0.579984  0.725400  1
  O  O529  1  0.167186  0.919941  0.725397  1
  O  O530  1  0.832776  0.919965  0.725396  1
  O  O531  1  0.249914  0.749957  0.690286  1
  O  O532  1  0.749912  0.749985  0.690289  1
  O  O533  1  0.262240  0.629470  0.676335  1
  O  O534  1  0.737607  0.629501  0.676335  1
  O  O535  1  0.237594  0.870429  0.676329  1
  O  O536  1  0.762223  0.870466  0.676335  1
  O  O537  1  0.407068  0.710774  0.678318  1
  O  O538  1  0.592758  0.710777  0.678321  1
  O  O539  1  0.092745  0.789156  0.678321  1
  O  O540  1  0.907052  0.789161  0.678315  1
  O  O541  1  0.246259  0.506183  0.663416  1
  O  O542  1  0.753540  0.506216  0.663413  1
  O  O543  1  0.253537  0.993713  0.663407  1
  O  O544  1  0.746251  0.993756  0.663417  1
  O  O545  1  0.100871  0.593042  0.664191  1
  O  O546  1  0.898954  0.593049  0.664190  1
  O  O547  1  0.398949  0.906879  0.664186  1
  O  O548  1  0.600864  0.906892  0.664190  1
  O  O549  1  0.499921  0.793972  0.660466  1
  O  O550  1  0.872401  0.000000  0.703224  1
  O  O551  1  0.499999  0.205948  0.745988  1
  O  O552  1  0.000000  0.084540  0.693480  1
  O  O553  1  0.499949  0.415397  0.693483  1
  O  O554  1  0.852126  0.138309  0.706217  1
  O  O555  1  0.147844  0.138306  0.706217  1
  O  O556  1  0.647826  0.361634  0.706220  1
  O  O557  1  0.352101  0.361636  0.706220  1
  O  O558  1  0.832761  0.079993  0.681055  1
  O  O559  1  0.167167  0.079962  0.681055  1
  O  O560  1  0.667143  0.419967  0.681058  1
  O  O561  1  0.332735  0.419950  0.681058  1
  O  O562  1  0.750008  0.249979  0.716166  1
  O  O563  1  0.250006  0.249953  0.716168  1
  O  O564  1  0.762329  0.129495  0.730121  1
  O  O565  1  0.237696  0.129461  0.730118  1
  O  O566  1  0.737679  0.370454  0.730121  1
  O  O567  1  0.262306  0.370427  0.730124  1
  O  O568  1  0.907172  0.210775  0.728133  1
  O  O569  1  0.092864  0.210765  0.728138  1
  O  O570  1  0.592855  0.289149  0.728137  1
  O  O571  1  0.407161  0.289155  0.728135  1
  O  O572  1  0.746391  0.006210  0.743044  1
  O  O573  1  0.253675  0.006174  0.743038  1
  O  O574  1  0.753647  0.493743  0.743039  1
  O  O575  1  0.246360  0.493717  0.743045  1
  O  O576  1  0.600979  0.093045  0.742265  1
  O  O577  1  0.399062  0.093031  0.742263  1
  O  O578  1  0.899039  0.406882  0.742266  1
  O  O579  1  0.100952  0.406879  0.742268  1
  O  O580  1  0.000000  0.293965  0.745989  1
  O  O581  1  0.627520  0.499970  0.703230  1
  O  O582  1  0.372378  0.499972  0.703227  1
  O  O583  1  0.372399  0.000000  0.574693  1
  O  O584  1  0.000000  0.584540  0.584438  1
  O  O585  1  0.499973  0.915396  0.584436  1
  O  O586  1  0.832752  0.579997  0.596866  1
  O  O587  1  0.167151  0.579957  0.596862  1
  O  O588  1  0.667174  0.919969  0.596859  1
  O  O589  1  0.332764  0.919947  0.596862  1
  O  O590  1  0.249737  0.625729  0.648983  1
  O  O591  1  0.750087  0.625763  0.648983  1
  O  O592  1  0.250092  0.874167  0.648977  1
  O  O593  1  0.749747  0.874217  0.648983  1
  O  O594  1  0.260819  0.870449  0.621871  1
  O  O595  1  0.739008  0.870475  0.621876  1
  O  O596  1  0.239009  0.629446  0.621876  1
  O  O597  1  0.760825  0.629484  0.621877  1
  O  O598  1  0.407388  0.954968  0.620332  1
  O  O599  1  0.592385  0.954925  0.620322  1
  O  O600  1  0.092386  0.544986  0.620326  1
  O  O601  1  0.907388  0.544964  0.620334  1
  O  O602  1  0.249897  0.749948  0.636610  1
  O  O603  1  0.749885  0.749985  0.636616  1
  O  O604  1  0.399675  0.660230  0.634844  1
  O  O605  1  0.600143  0.660235  0.634843  1
  O  O606  1  0.100141  0.839685  0.634839  1
  O  O607  1  0.899672  0.839693  0.634843  1
  O  O608  1  0.499914  0.544050  0.641519  1
  O  O609  1  0.000000  0.955873  0.641517  1
  O  O610  1  0.499922  0.905393  0.641989  1
  O  O611  1  0.000000  0.594531  0.641991  1
  O  O612  1  0.499918  0.657184  0.657062  1
  O  O613  1  0.000000  0.842742  0.657060  1
  O  O614  1  0.627541  0.000000  0.574686  1
  O  O615  1  0.352092  0.138310  0.577681  1
  O  O616  1  0.647822  0.138296  0.577681  1
  O  O617  1  0.147783  0.361634  0.577684  1
  O  O618  1  0.852069  0.361627  0.577685  1
  O  O619  1  0.249894  0.249955  0.587629  1
  O  O620  1  0.749906  0.249973  0.587632  1
  O  O621  1  0.262215  0.129466  0.601580  1
  O  O622  1  0.737576  0.129496  0.601588  1
  O  O623  1  0.237588  0.370426  0.601588  1
  O  O624  1  0.762210  0.370459  0.601586  1
  O  O625  1  0.407036  0.210779  0.599602  1
  O  O626  1  0.592727  0.210772  0.599594  1
  O  O627  1  0.092738  0.289154  0.599599  1
  O  O628  1  0.907045  0.289160  0.599605  1
  O  O629  1  0.246249  0.006180  0.614500  1
  O  O630  1  0.253531  0.493712  0.614509  1
  O  O631  1  0.746243  0.493755  0.614503  1
  O  O632  1  0.249732  0.125727  0.628932  1
  O  O633  1  0.750101  0.125768  0.628939  1
  O  O634  1  0.250077  0.374173  0.628940  1
  O  O635  1  0.749739  0.374215  0.628938  1
  O  O636  1  0.100857  0.093037  0.613726  1
  O  O637  1  0.898941  0.093047  0.613729  1
  O  O638  1  0.398941  0.406875  0.613732  1
  O  O639  1  0.600856  0.406894  0.613731  1
  O  O640  1  0.260817  0.370447  0.656046  1
  O  O641  1  0.739008  0.370482  0.656044  1
  O  O642  1  0.239000  0.129448  0.656039  1
  O  O643  1  0.760822  0.129487  0.656045  1
  O  O644  1  0.407399  0.454948  0.657590  1
  O  O645  1  0.592396  0.454947  0.657594  1
  O  O646  1  0.092387  0.044985  0.657593  1
  O  O647  1  0.907391  0.044973  0.657586  1
  O  O648  1  0.249899  0.249949  0.641305  1
  O  O649  1  0.749866  0.249988  0.641307  1
  O  O650  1  0.399668  0.160220  0.643073  1
  O  O651  1  0.600139  0.160232  0.643077  1
  O  O652  1  0.100138  0.339681  0.643079  1
  O  O653  1  0.899667  0.339692  0.643076  1
  O  O654  1  0.499948  0.044052  0.636399  1
  O  O655  1  0.000000  0.455871  0.636403  1
  O  O656  1  0.499910  0.405388  0.635931  1
  O  O657  1  0.000000  0.094530  0.635927  1
  O  O658  1  0.499917  0.157187  0.620856  1
  O  O659  1  -0.000000  0.342741  0.620860  1
  O  O660  1  0.499921  0.293971  0.617452  1
  O  O661  1  0.000000  0.205954  0.617453  1
  O  O662  1  0.753529  0.006214  0.614511  1
  O  O663  1  0.127517  0.499970  0.574688  1
  O  O664  1  0.872373  0.499962  0.574698  1
  Si  Si665  1  0.817024  0.682329  0.301174  1
  Si  Si666  1  0.182985  0.682322  0.301175  1
  Si  Si667  1  0.682984  0.817605  0.301173  1
  Si  Si668  1  0.317033  0.817595  0.301174  1
  Si  Si669  1  0.715117  0.588931  0.277702  1
  Si  Si670  1  0.284894  0.588900  0.277707  1
  Si  Si671  1  0.784913  0.911011  0.277704  1
  Si  Si672  1  0.215134  0.910991  0.277700  1
  Si  Si673  1  0.785654  0.668363  0.249738  1
  Si  Si674  1  0.214356  0.668337  0.249744  1
  Si  Si675  1  0.714373  0.831578  0.249739  1
  Si  Si676  1  0.285662  0.831547  0.249737  1
  Si  Si677  1  0.000000  0.964690  0.244049  1
  Si  Si678  1  0.499995  0.535218  0.244052  1
  Si  Si679  1  0.000000  0.630661  0.255279  1
  Si  Si680  1  0.500011  0.869240  0.255275  1
  Si  Si681  1  0.000000  0.718897  0.283290  1
  Si  Si682  1  0.500009  0.781021  0.283288  1
  Si  Si683  1  0.499999  0.620135  0.272613  1
  Si  Si684  1  0.000000  0.879774  0.272610  1
  Si  Si685  1  -0.000000  0.379776  0.234093  1
  Si  Si686  1  0.500014  0.120136  0.234091  1
  Si  Si687  1  0.388053  0.076481  0.310200  1
  Si  Si688  1  0.611881  0.076477  0.310197  1
  Si  Si689  1  0.111850  0.423451  0.310199  1
  Si  Si690  1  0.888022  0.423455  0.310204  1
  Si  Si691  1  0.809162  0.434939  0.279194  1
  Si  Si692  1  0.190818  0.434919  0.279194  1
  Si  Si693  1  0.690840  0.064992  0.279191  1
  Si  Si694  1  0.309190  0.064980  0.279190  1
  Si  Si695  1  0.785670  0.168364  0.256964  1
  Si  Si696  1  0.214374  0.168343  0.256961  1
  Si  Si697  1  0.714361  0.331573  0.256964  1
  Si  Si698  1  0.285653  0.331559  0.256966  1
  Si  Si699  1  -0.000000  0.464687  0.262654  1
  Si  Si700  1  0.500018  0.035215  0.262651  1
  Si  Si701  1  0.000000  0.130664  0.251425  1
  Si  Si702  1  0.500003  0.369244  0.251427  1
  Si  Si703  1  0.388036  0.576484  0.196503  1
  Si  Si704  1  0.611864  0.576484  0.196505  1
  Si  Si705  1  0.111886  0.923454  0.196503  1
  Si  Si706  1  0.888057  0.923459  0.196501  1
  Si  Si707  1  0.316943  0.682322  0.172638  1
  Si  Si708  1  0.682896  0.682343  0.172640  1
  Si  Si709  1  0.182897  0.817596  0.172636  1
  Si  Si710  1  0.816941  0.817617  0.172637  1
  Si  Si711  1  0.215024  0.588912  0.149169  1
  Si  Si712  1  0.784800  0.588938  0.149168  1
  Si  Si713  1  0.284795  0.910990  0.149162  1
  Si  Si714  1  0.715017  0.911026  0.149169  1
  Si  Si715  1  0.809188  0.934943  0.227511  1
  Si  Si716  1  0.190846  0.934918  0.227509  1
  Si  Si717  1  0.690814  0.564996  0.227511  1
  Si  Si718  1  0.309166  0.564981  0.227513  1
  Si  Si719  1  0.499918  0.718903  0.154753  1
  Si  Si720  1  0.000000  0.781029  0.154752  1
  Si  Si721  1  0.500003  0.281021  0.223414  1
  Si  Si722  1  0.888060  0.076484  0.181662  1
  Si  Si723  1  0.111889  0.076479  0.181664  1
  Si  Si724  1  0.611863  0.423458  0.181667  1
  Si  Si725  1  0.388034  0.423457  0.181665  1
  Si  Si726  1  0.817028  0.182339  0.205528  1
  Si  Si727  1  0.182983  0.182316  0.205529  1
  Si  Si728  1  0.682974  0.317608  0.205529  1
  Si  Si729  1  0.317016  0.317595  0.205531  1
  Si  Si730  1  0.715132  0.088933  0.229000  1
  Si  Si731  1  0.284908  0.088904  0.228997  1
  Si  Si732  1  0.784886  0.411014  0.229000  1
  Si  Si733  1  0.215106  0.410993  0.229003  1
  Si  Si734  1  0.309082  0.434925  0.150658  1
  Si  Si735  1  0.690739  0.434951  0.150657  1
  Si  Si736  1  0.190740  0.064980  0.150653  1
  Si  Si737  1  0.809088  0.065009  0.150657  1
  Si  Si738  1  0.000000  0.218896  0.223414  1
  Si  Si739  1  0.000000  0.869253  0.126740  1
  Si  Si740  1  0.499912  0.630670  0.126742  1
  Si  Si741  1  0.000000  0.535224  0.115516  1
  Si  Si742  1  0.499914  0.879783  0.144074  1
  Si  Si743  1  0.000000  0.620144  0.144076  1
  Si  Si744  1  0.309089  0.934929  0.098973  1
  Si  Si745  1  0.690744  0.934942  0.098974  1
  Si  Si746  1  0.190734  0.564978  0.098976  1
  Si  Si747  1  0.809083  0.565006  0.098977  1
  Si  Si748  1  0.285557  0.668344  0.121204  1
  Si  Si749  1  0.714258  0.668374  0.121205  1
  Si  Si750  1  0.214258  0.831555  0.121199  1
  Si  Si751  1  0.785553  0.831585  0.121205  1
  Si  Si752  1  0.499913  0.964696  0.115513  1
  Si  Si753  1  0.499905  0.379780  0.105558  1
  Si  Si754  1  0.316928  0.182323  0.076991  1
  Si  Si755  1  0.682886  0.182333  0.076993  1
  Si  Si756  1  0.182880  0.317594  0.076994  1
  Si  Si757  1  0.816926  0.317610  0.076996  1
  Si  Si758  1  0.215010  0.088909  0.100460  1
  Si  Si759  1  0.784787  0.088937  0.100466  1
  Si  Si760  1  0.284788  0.410989  0.100467  1
  Si  Si761  1  0.715009  0.411025  0.100464  1
  Si  Si762  1  0.285551  0.168342  0.128424  1
  Si  Si763  1  0.714254  0.168374  0.128430  1
  Si  Si764  1  0.214256  0.331555  0.128431  1
  Si  Si765  1  0.785547  0.331586  0.128428  1
  Si  Si766  1  0.499905  0.464696  0.134118  1
  Si  Si767  1  -0.000000  0.035227  0.134115  1
  Si  Si768  1  0.499912  0.130671  0.122888  1
  Si  Si769  1  0.000000  0.369251  0.122892  1
  Si  Si770  1  0.499901  0.218903  0.094876  1
  Si  Si771  1  0.000000  0.281029  0.094880  1
  Si  Si772  1  0.000000  0.120142  0.105555  1
  Si  Si773  1  0.817024  0.682329  0.558246  1
  Si  Si774  1  0.182985  0.682322  0.558247  1
  Si  Si775  1  0.682984  0.817605  0.558245  1
  Si  Si776  1  0.317033  0.817595  0.558245  1
  Si  Si777  1  0.715117  0.588931  0.534774  1
  Si  Si778  1  0.284894  0.588900  0.534779  1
  Si  Si779  1  0.784913  0.911011  0.534776  1
  Si  Si780  1  0.215134  0.910991  0.534772  1
  Si  Si781  1  0.785654  0.668363  0.506809  1
  Si  Si782  1  0.214356  0.668337  0.506815  1
  Si  Si783  1  0.714373  0.831578  0.506811  1
  Si  Si784  1  0.285662  0.831547  0.506809  1
  Si  Si785  1  0.000000  0.964690  0.501121  1
  Si  Si786  1  0.499995  0.535218  0.501124  1
  Si  Si787  1  0.000000  0.630661  0.512351  1
  Si  Si788  1  0.500011  0.869240  0.512347  1
  Si  Si789  1  0.000000  0.718897  0.540362  1
  Si  Si790  1  0.500009  0.781021  0.540360  1
  Si  Si791  1  0.499999  0.620135  0.529685  1
  Si  Si792  1  0.000000  0.879774  0.529682  1
  Si  Si793  1  -0.000000  0.379776  0.491165  1
  Si  Si794  1  0.500014  0.120136  0.491163  1
  Si  Si795  1  0.388053  0.076481  0.567272  1
  Si  Si796  1  0.611881  0.076477  0.567268  1
  Si  Si797  1  0.111850  0.423451  0.567271  1
  Si  Si798  1  0.888022  0.423455  0.567276  1
  Si  Si799  1  0.809162  0.434939  0.536266  1
  Si  Si800  1  0.190818  0.434919  0.536266  1
  Si  Si801  1  0.690840  0.064992  0.536262  1
  Si  Si802  1  0.309190  0.064980  0.536262  1
  Si  Si803  1  0.785670  0.168364  0.514036  1
  Si  Si804  1  0.214374  0.168343  0.514033  1
  Si  Si805  1  0.714361  0.331573  0.514036  1
  Si  Si806  1  0.285653  0.331559  0.514038  1
  Si  Si807  1  0.000000  0.464687  0.519726  1
  Si  Si808  1  0.500018  0.035215  0.519723  1
  Si  Si809  1  0.000000  0.130664  0.508497  1
  Si  Si810  1  0.500003  0.369244  0.508499  1
  Si  Si811  1  0.388036  0.576484  0.453575  1
  Si  Si812  1  0.611864  0.576484  0.453577  1
  Si  Si813  1  0.111886  0.923454  0.453575  1
  Si  Si814  1  0.888057  0.923459  0.453572  1
  Si  Si815  1  0.316943  0.682322  0.429710  1
  Si  Si816  1  0.682896  0.682343  0.429712  1
  Si  Si817  1  0.182897  0.817596  0.429708  1
  Si  Si818  1  0.816941  0.817617  0.429709  1
  Si  Si819  1  0.215024  0.588912  0.406240  1
  Si  Si820  1  0.784800  0.588938  0.406240  1
  Si  Si821  1  0.284795  0.910990  0.406234  1
  Si  Si822  1  0.715017  0.911026  0.406241  1
  Si  Si823  1  0.809188  0.934943  0.484583  1
  Si  Si824  1  0.190846  0.934918  0.484581  1
  Si  Si825  1  0.690814  0.564996  0.484583  1
  Si  Si826  1  0.309166  0.564981  0.484585  1
  Si  Si827  1  0.499918  0.718903  0.411825  1
  Si  Si828  1  0.000000  0.781029  0.411824  1
  Si  Si829  1  0.500003  0.281021  0.480486  1
  Si  Si830  1  0.888060  0.076484  0.438734  1
  Si  Si831  1  0.111889  0.076479  0.438736  1
  Si  Si832  1  0.611863  0.423458  0.438739  1
  Si  Si833  1  0.388034  0.423457  0.438737  1
  Si  Si834  1  0.817028  0.182339  0.462600  1
  Si  Si835  1  0.182983  0.182316  0.462601  1
  Si  Si836  1  0.682974  0.317608  0.462601  1
  Si  Si837  1  0.317016  0.317595  0.462603  1
  Si  Si838  1  0.715132  0.088933  0.486072  1
  Si  Si839  1  0.284908  0.088904  0.486069  1
  Si  Si840  1  0.784886  0.411014  0.486072  1
  Si  Si841  1  0.215106  0.410993  0.486075  1
  Si  Si842  1  0.309082  0.434925  0.407730  1
  Si  Si843  1  0.690739  0.434951  0.407729  1
  Si  Si844  1  0.190740  0.064980  0.407725  1
  Si  Si845  1  0.809088  0.065009  0.407729  1
  Si  Si846  1  -0.000000  0.218896  0.480486  1
  Si  Si847  1  0.000000  0.869253  0.383812  1
  Si  Si848  1  0.499912  0.630670  0.383814  1
  Si  Si849  1  0.000000  0.535224  0.372588  1
  Si  Si850  1  0.499914  0.879783  0.401146  1
  Si  Si851  1  0.000000  0.620144  0.401148  1
  Si  Si852  1  0.888040  0.576481  0.325043  1
  Si  Si853  1  0.111868  0.576478  0.325038  1
  Si  Si854  1  0.611886  0.923453  0.325036  1
  Si  Si855  1  0.388058  0.923457  0.325040  1
  Si  Si856  1  0.309089  0.934929  0.356045  1
  Si  Si857  1  0.690744  0.934942  0.356046  1
  Si  Si858  1  0.190734  0.564978  0.356048  1
  Si  Si859  1  0.809083  0.565006  0.356049  1
  Si  Si860  1  0.285557  0.668344  0.378276  1
  Si  Si861  1  0.714258  0.668374  0.378277  1
  Si  Si862  1  0.214258  0.831555  0.378271  1
  Si  Si863  1  0.785553  0.831585  0.378277  1
  Si  Si864  1  0.499913  0.964696  0.372585  1
  Si  Si865  1  0.499905  0.379780  0.362629  1
  Si  Si866  1  0.316928  0.182323  0.334063  1
  Si  Si867  1  0.682886  0.182333  0.334065  1
  Si  Si868  1  0.182880  0.317594  0.334066  1
  Si  Si869  1  0.816926  0.317610  0.334068  1
  Si  Si870  1  0.215010  0.088909  0.357531  1
  Si  Si871  1  0.784787  0.088937  0.357538  1
  Si  Si872  1  0.284788  0.410989  0.357539  1
  Si  Si873  1  0.715009  0.411025  0.357536  1
  Si  Si874  1  0.285551  0.168342  0.385496  1
  Si  Si875  1  0.714254  0.168374  0.385502  1
  Si  Si876  1  0.214256  0.331555  0.385503  1
  Si  Si877  1  0.785547  0.331586  0.385500  1
  Si  Si878  1  0.499905  0.464696  0.391190  1
  Si  Si879  1  -0.000000  0.035227  0.391187  1
  Si  Si880  1  0.499912  0.130671  0.379960  1
  Si  Si881  1  -0.000000  0.369251  0.379964  1
  Si  Si882  1  0.499901  0.218903  0.351948  1
  Si  Si883  1  0.000000  0.281029  0.351951  1
  Si  Si884  1  0.000000  0.120142  0.362627  1
  Si  Si885  1  0.817024  0.682329  0.815318  1
  Si  Si886  1  0.182985  0.682322  0.815319  1
  Si  Si887  1  0.682984  0.817605  0.815317  1
  Si  Si888  1  0.317033  0.817595  0.815317  1
  Si  Si889  1  0.715117  0.588931  0.791845  1
  Si  Si890  1  0.284894  0.588900  0.791851  1
  Si  Si891  1  0.784913  0.911011  0.791847  1
  Si  Si892  1  0.215134  0.910991  0.791844  1
  Si  Si893  1  0.785654  0.668363  0.763881  1
  Si  Si894  1  0.214356  0.668337  0.763887  1
  Si  Si895  1  0.714373  0.831578  0.763883  1
  Si  Si896  1  0.285662  0.831547  0.763881  1
  Si  Si897  1  0.000000  0.964690  0.758193  1
  Si  Si898  1  0.499995  0.535218  0.758196  1
  Si  Si899  1  0.000000  0.630661  0.769423  1
  Si  Si900  1  0.500011  0.869240  0.769419  1
  Si  Si901  1  0.000000  0.718897  0.797434  1
  Si  Si902  1  0.500009  0.781021  0.797432  1
  Si  Si903  1  0.499999  0.620135  0.786756  1
  Si  Si904  1  0.000000  0.879774  0.786754  1
  Si  Si905  1  0.000000  0.379776  0.748237  1
  Si  Si906  1  0.500014  0.120136  0.748234  1
  Si  Si907  1  0.809162  0.434939  0.793337  1
  Si  Si908  1  0.190818  0.434919  0.793337  1
  Si  Si909  1  0.690840  0.064992  0.793334  1
  Si  Si910  1  0.309190  0.064980  0.793334  1
  Si  Si911  1  0.785670  0.168364  0.771108  1
  Si  Si912  1  0.214374  0.168343  0.771105  1
  Si  Si913  1  0.714361  0.331573  0.771108  1
  Si  Si914  1  0.285653  0.331559  0.771110  1
  Si  Si915  1  0.000000  0.464687  0.776798  1
  Si  Si916  1  0.500018  0.035215  0.776795  1
  Si  Si917  1  0.000000  0.130664  0.765569  1
  Si  Si918  1  0.500003  0.369244  0.765571  1
  Si  Si919  1  0.388036  0.576484  0.710647  1
  Si  Si920  1  0.611864  0.576484  0.710649  1
  Si  Si921  1  0.111886  0.923454  0.710647  1
  Si  Si922  1  0.888057  0.923459  0.710644  1
  Si  Si923  1  0.316943  0.682322  0.686782  1
  Si  Si924  1  0.682896  0.682343  0.686783  1
  Si  Si925  1  0.182897  0.817596  0.686780  1
  Si  Si926  1  0.816941  0.817617  0.686781  1
  Si  Si927  1  0.215024  0.588912  0.663312  1
  Si  Si928  1  0.784800  0.588938  0.663312  1
  Si  Si929  1  0.284795  0.910990  0.663306  1
  Si  Si930  1  0.715017  0.911026  0.663313  1
  Si  Si931  1  0.809188  0.934943  0.741654  1
  Si  Si932  1  0.190846  0.934918  0.741653  1
  Si  Si933  1  0.690814  0.564996  0.741655  1
  Si  Si934  1  0.309166  0.564981  0.741657  1
  Si  Si935  1  0.499918  0.718903  0.668897  1
  Si  Si936  1  0.000000  0.781029  0.668896  1
  Si  Si937  1  0.500003  0.281021  0.737558  1
  Si  Si938  1  0.888060  0.076484  0.695806  1
  Si  Si939  1  0.111889  0.076479  0.695808  1
  Si  Si940  1  0.611863  0.423458  0.695811  1
  Si  Si941  1  0.388034  0.423457  0.695808  1
  Si  Si942  1  0.817028  0.182339  0.719672  1
  Si  Si943  1  0.182983  0.182316  0.719673  1
  Si  Si944  1  0.682974  0.317608  0.719673  1
  Si  Si945  1  0.317016  0.317595  0.719674  1
  Si  Si946  1  0.715132  0.088933  0.743144  1
  Si  Si947  1  0.284908  0.088904  0.743141  1
  Si  Si948  1  0.784886  0.411014  0.743144  1
  Si  Si949  1  0.215106  0.410993  0.743147  1
  Si  Si950  1  0.309082  0.434925  0.664802  1
  Si  Si951  1  0.690739  0.434951  0.664801  1
  Si  Si952  1  0.190740  0.064980  0.664797  1
  Si  Si953  1  0.809088  0.065009  0.664800  1
  Si  Si954  1  -0.000000  0.218896  0.737557  1
  Si  Si955  1  0.000000  0.869253  0.640884  1
  Si  Si956  1  0.499912  0.630670  0.640886  1
  Si  Si957  1  0.000000  0.535224  0.629660  1
  Si  Si958  1  0.499914  0.879783  0.658218  1
  Si  Si959  1  0.000000  0.620144  0.658220  1
  Si  Si960  1  0.888040  0.576481  0.582115  1
  Si  Si961  1  0.111868  0.576478  0.582110  1
  Si  Si962  1  0.611886  0.923453  0.582108  1
  Si  Si963  1  0.388058  0.923457  0.582111  1
  Si  Si964  1  0.309089  0.934929  0.613117  1
  Si  Si965  1  0.690744  0.934942  0.613118  1
  Si  Si966  1  0.190734  0.564978  0.613120  1
  Si  Si967  1  0.809083  0.565006  0.613121  1
  Si  Si968  1  0.285557  0.668344  0.635348  1
  Si  Si969  1  0.714258  0.668374  0.635348  1
  Si  Si970  1  0.214258  0.831555  0.635343  1
  Si  Si971  1  0.785553  0.831585  0.635349  1
  Si  Si972  1  0.499913  0.964696  0.629657  1
  Si  Si973  1  0.499905  0.379780  0.619701  1
  Si  Si974  1  0.316928  0.182323  0.591135  1
  Si  Si975  1  0.682886  0.182333  0.591137  1
  Si  Si976  1  0.182880  0.317594  0.591138  1
  Si  Si977  1  0.816926  0.317610  0.591140  1
  Si  Si978  1  0.215010  0.088909  0.614603  1
  Si  Si979  1  0.784787  0.088937  0.614610  1
  Si  Si980  1  0.284788  0.410989  0.614611  1
  Si  Si981  1  0.715009  0.411025  0.614608  1
  Si  Si982  1  0.285551  0.168342  0.642568  1
  Si  Si983  1  0.714254  0.168374  0.642574  1
  Si  Si984  1  0.214256  0.331555  0.642575  1
  Si  Si985  1  0.785547  0.331586  0.642572  1
  Si  Si986  1  0.499905  0.464696  0.648262  1
  Si  Si987  1  0.000000  0.035227  0.648259  1
  Si  Si988  1  0.499912  0.130671  0.637032  1
  Si  Si989  1  0.000000  0.369251  0.637036  1
  Si  Si990  1  0.499901  0.218903  0.609020  1
  Si  Si991  1  0.000000  0.281029  0.609023  1
  Si  Si992  1  0.000000  0.120142  0.619698  1
  H  H993  1  0.832752  0.579997  0.073030  1
  H  H994  1  0.167151  0.579957  0.073026  1
  H  H995  1  0.667174  0.919969  0.073024  1
  H  H996  1  0.332764  0.919947  0.073026  1
  H  H997  1  0.352092  0.138310  0.053845  1
  H  H998  1  0.647822  0.138296  0.053845  1
  H  H999  1  0.147783  0.361634  0.053848  1
  H  H1000  1  0.852069  0.361627  0.053850  1
  H  H1001  1  0.852103  0.638297  0.838466  1
  H  H1002  1  0.147831  0.638308  0.838465  1
  H  H1003  1  0.647840  0.861623  0.838462  1
  H  H1004  1  0.352124  0.861635  0.838463  1
  H  H1005  1  0.332774  0.079965  0.819284  1
  H  H1006  1  0.667171  0.079983  0.819281  1
  H  H1007  1  0.167141  0.419930  0.819284  1
  H  H1008  1  0.832731  0.419972  0.819289  1
