# generated using pymatgen
data_Si60H2O121
_symmetry_space_group_name_H-M   'P 1'
_cell_length_a   14.22215015
_cell_length_b   20.03147368
_cell_length_c   116.34592166
_cell_angle_alpha   90.00000000
_cell_angle_beta   90.00000000
_cell_angle_gamma   90.00000000
_symmetry_Int_Tables_number   1
_chemical_formula_structural   Si60H2O121
_chemical_formula_sum   'Si480 H16 O968'
_cell_volume   33145.8625018
_cell_formula_units_Z   8
loop_
 _symmetry_equiv_pos_site_id
 _symmetry_equiv_pos_as_xyz
  1  'x, y, z'
loop_
 _atom_site_type_symbol
 _atom_site_label
 _atom_site_symmetry_multiplicity
 _atom_site_fract_x
 _atom_site_fract_y
 _atom_site_fract_z
 _atom_site_occupancy
  O  O1  1  0.907537  0.955410  0.424690  1
  O  O2  1  0.092495  0.955406  0.424689  1
  O  O3  1  0.092507  0.544534  0.424687  1
  O  O4  1  0.907545  0.544507  0.424688  1
  O  O5  1  0.000000  0.875991  0.411199  1
  O  O6  1  0.000000  0.623923  0.411195  1
  O  O7  1  0.092782  0.838295  0.393600  1
  O  O8  1  0.907206  0.838280  0.393603  1
  O  O9  1  0.907212  0.661641  0.393596  1
  O  O10  1  0.092790  0.661629  0.393598  1
  O  O11  1  0.000000  0.749954  0.404207  1
  O  O12  1  -0.000000  0.749964  0.352203  1
  O  O13  1  0.909978  0.845628  0.361887  1
  O  O14  1  0.090041  0.845801  0.361849  1
  O  O15  1  0.090071  0.654124  0.361849  1
  O  O16  1  0.910011  0.654218  0.361881  1
  O  O17  1  0.000000  0.873132  0.343989  1
  O  O18  1  -0.000000  0.626833  0.343986  1
  O  O19  1  0.903425  0.557445  0.330026  1
  O  O20  1  0.096021  0.558717  0.329918  1
  O  O21  1  0.095947  0.941251  0.329920  1
  O  O22  1  0.903359  0.942594  0.330035  1
  O  O23  1  0.760890  0.948802  0.438212  1
  O  O24  1  0.239132  0.948796  0.438216  1
  O  O25  1  0.239133  0.551131  0.438214  1
  O  O26  1  0.760882  0.551127  0.438208  1
  O  O27  1  0.745314  0.949430  0.415972  1
  O  O28  1  0.254733  0.949318  0.415978  1
  O  O29  1  0.254750  0.550606  0.415976  1
  O  O30  1  0.745341  0.550513  0.415967  1
  O  O31  1  0.786715  0.845482  0.377471  1
  O  O32  1  0.213151  0.845428  0.377456  1
  O  O33  1  0.213179  0.654537  0.377455  1
  O  O34  1  0.786719  0.654502  0.377459  1
  O  O35  1  0.739718  0.874570  0.398189  1
  O  O36  1  0.260310  0.874560  0.398173  1
  O  O37  1  0.260323  0.625369  0.398172  1
  O  O38  1  0.739726  0.625336  0.398177  1
  O  O39  1  0.779935  0.749957  0.392189  1
  O  O40  1  0.220018  0.749968  0.392185  1
  O  O41  1  0.739843  0.848103  0.355631  1
  O  O42  1  0.260240  0.848071  0.355635  1
  O  O43  1  0.260272  0.651915  0.355634  1
  O  O44  1  0.739921  0.651912  0.355617  1
  O  O45  1  0.812621  0.949935  0.365339  1
  O  O46  1  0.187522  0.949988  0.365351  1
  O  O47  1  0.187668  0.549973  0.365355  1
  O  O48  1  0.812402  0.549997  0.365343  1
  O  O49  1  0.759789  0.948924  0.316025  1
  O  O50  1  0.240483  0.949030  0.316056  1
  O  O51  1  0.240540  0.550911  0.316058  1
  O  O52  1  0.759779  0.550870  0.316036  1
  O  O53  1  0.747940  0.000000  0.335507  1
  O  O54  1  0.754423  0.873743  0.334335  1
  O  O55  1  0.246104  0.874024  0.334370  1
  O  O56  1  0.246176  0.625967  0.334367  1
  O  O57  1  0.754539  0.626424  0.334308  1
  O  O58  1  0.302064  0.874102  0.455247  1
  O  O59  1  0.697992  0.874112  0.455248  1
  O  O60  1  0.697953  0.625824  0.455242  1
  O  O61  1  0.302035  0.625811  0.455248  1
  O  O62  1  0.589487  0.946940  0.442796  1
  O  O63  1  0.410556  0.946934  0.442793  1
  O  O64  1  0.410545  0.552983  0.442793  1
  O  O65  1  0.589474  0.552991  0.442791  1
  O  O66  1  0.594945  0.948949  0.404511  1
  O  O67  1  0.405113  0.948905  0.404516  1
  O  O68  1  0.405127  0.551018  0.404513  1
  O  O69  1  0.594960  0.550978  0.404509  1
  O  O70  1  0.594903  0.837406  0.341843  1
  O  O71  1  0.405256  0.837349  0.341862  1
  O  O72  1  0.405309  0.662681  0.341866  1
  O  O73  1  0.594985  0.662638  0.341835  1
  O  O74  1  0.725804  0.750050  0.341574  1
  O  O75  1  0.274375  0.749996  0.341565  1
  O  O76  1  0.590807  0.948978  0.309899  1
  O  O77  1  0.409378  0.949190  0.309952  1
  O  O78  1  0.409403  0.550835  0.309949  1
  O  O79  1  0.590835  0.551076  0.309904  1
  O  O80  1  0.500045  0.961476  0.423308  1
  O  O81  1  0.500030  0.538442  0.423306  1
  O  O82  1  0.500071  0.750017  0.331443  1
  O  O83  1  0.499928  0.874950  0.324362  1
  O  O84  1  0.499914  0.625079  0.324364  1
  O  O85  1  0.000000  0.500162  0.344851  1
  O  O86  1  0.000000  0.000000  0.344856  1
  O  O87  1  0.748080  0.500670  0.335586  1
  O  O88  1  -0.000000  0.000000  0.408218  1
  O  O89  1  -0.000000  0.499023  0.408218  1
  O  O90  1  0.500000  0.249971  0.318912  1
  O  O91  1  0.409948  0.345680  0.309234  1
  O  O92  1  0.590012  0.345780  0.309262  1
  O  O93  1  0.589976  0.154077  0.309267  1
  O  O94  1  0.409914  0.154264  0.309235  1
  O  O95  1  0.499598  0.373152  0.327125  1
  O  O96  1  0.499515  0.126835  0.327130  1
  O  O97  1  0.403351  0.057389  0.341083  1
  O  O98  1  0.595943  0.058718  0.341199  1
  O  O99  1  0.596008  0.441328  0.341188  1
  O  O100  1  0.403422  0.442582  0.341081  1
  O  O101  1  0.500087  0.358004  0.423647  1
  O  O102  1  0.500089  0.141921  0.423648  1
  O  O103  1  0.594145  0.342826  0.405304  1
  O  O104  1  0.406025  0.342807  0.405310  1
  O  O105  1  0.406013  0.157112  0.405311  1
  O  O106  1  0.594132  0.157090  0.405304  1
  O  O107  1  0.500042  0.448218  0.408672  1
  O  O108  1  0.500024  0.051703  0.408675  1
  O  O109  1  0.500022  0.448194  0.438422  1
  O  O110  1  0.500024  0.051727  0.438423  1
  O  O111  1  0.410193  0.341466  0.442575  1
  O  O112  1  0.589872  0.341473  0.442577  1
  O  O113  1  0.589864  0.158446  0.442580  1
  O  O114  1  0.410183  0.158449  0.442575  1
  O  O115  1  0.794790  0.053066  0.426486  1
  O  O116  1  0.205288  0.053034  0.426482  1
  O  O117  1  0.205286  0.446893  0.426480  1
  O  O118  1  0.794779  0.446860  0.426482  1
  O  O119  1  0.239855  0.348097  0.315494  1
  O  O120  1  0.760245  0.348085  0.315474  1
  O  O121  1  0.760169  0.151933  0.315490  1
  O  O122  1  0.239819  0.151889  0.315496  1
  O  O123  1  0.312558  0.449974  0.305779  1
  O  O124  1  0.687499  0.449984  0.305765  1
  O  O125  1  0.687722  0.049967  0.305759  1
  O  O126  1  0.312444  0.049998  0.305777  1
  O  O127  1  0.259816  0.449044  0.355081  1
  O  O128  1  0.740522  0.448993  0.355059  1
  O  O129  1  0.740516  0.050783  0.355050  1
  O  O130  1  0.259773  0.050881  0.355080  1
  O  O131  1  0.247953  0.000000  0.335548  1
  O  O132  1  0.248009  0.499457  0.335560  1
  O  O133  1  0.254504  0.373643  0.336796  1
  O  O134  1  0.746148  0.374102  0.336735  1
  O  O135  1  0.746036  0.126068  0.336764  1
  O  O136  1  0.254439  0.126347  0.336799  1
  O  O137  1  0.284373  0.249962  0.402258  1
  O  O138  1  0.715744  0.249952  0.402245  1
  O  O139  1  0.247962  0.373663  0.395795  1
  O  O140  1  0.752175  0.373647  0.395776  1
  O  O141  1  0.752149  0.126256  0.395774  1
  O  O142  1  0.247943  0.126262  0.395796  1
  O  O143  1  0.255390  0.341574  0.416733  1
  O  O144  1  0.744783  0.341557  0.416719  1
  O  O145  1  0.744771  0.158344  0.416718  1
  O  O146  1  0.255376  0.158356  0.416734  1
  O  O147  1  0.238893  0.344632  0.438688  1
  O  O148  1  0.761159  0.344591  0.438680  1
  O  O149  1  0.761144  0.155336  0.438680  1
  O  O150  1  0.238880  0.155291  0.438689  1
  O  O151  1  0.307431  0.249959  0.450927  1
  O  O152  1  0.692622  0.249961  0.450927  1
  O  O153  1  0.701048  0.499968  0.457021  1
  O  O154  1  0.094925  0.337377  0.329276  1
  O  O155  1  0.905276  0.337360  0.329252  1
  O  O156  1  0.905197  0.162662  0.329263  1
  O  O157  1  0.094875  0.162642  0.329274  1
  O  O158  1  0.225770  0.249995  0.329545  1
  O  O159  1  0.774329  0.250047  0.329550  1
  O  O160  1  0.090849  0.448947  0.361207  1
  O  O161  1  0.909420  0.449245  0.361167  1
  O  O162  1  0.909375  0.050799  0.361162  1
  O  O163  1  0.090833  0.051086  0.361208  1
  O  O164  1  0.214825  0.444821  0.377215  1
  O  O165  1  0.785492  0.444788  0.377190  1
  O  O166  1  0.785441  0.055106  0.377188  1
  O  O167  1  0.214811  0.055109  0.377216  1
  O  O168  1  0.094594  0.439718  0.393341  1
  O  O169  1  0.905511  0.439715  0.393334  1
  O  O170  1  0.905493  0.060203  0.393331  1
  O  O171  1  0.094574  0.060202  0.393341  1
  O  O172  1  0.092084  0.346822  0.425457  1
  O  O173  1  0.908018  0.346816  0.425458  1
  O  O174  1  0.908006  0.153114  0.425458  1
  O  O175  1  0.092070  0.153093  0.425457  1
  O  O176  1  0.000000  0.250009  0.339674  1
  O  O177  1  -0.000000  0.374946  0.346752  1
  O  O178  1  0.000000  0.125061  0.346752  1
  O  O179  1  0.000000  0.371825  0.407767  1
  O  O180  1  0.000000  0.128091  0.407766  1
  O  O181  1  -0.000000  0.249959  0.416221  1
  O  O182  1  0.250856  0.499505  0.396386  1
  O  O183  1  0.749237  0.499483  0.396365  1
  O  O184  1  0.500750  0.499850  0.326255  1
  O  O185  1  0.749237  0.000000  0.396366  1
  O  O186  1  0.250841  0.000000  0.396388  1
  O  O187  1  0.500761  0.000000  0.326259  1
  O  O188  1  0.407454  0.955436  0.181759  1
  O  O189  1  0.592412  0.955411  0.181756  1
  O  O190  1  0.592417  0.544527  0.181754  1
  O  O191  1  0.407457  0.544550  0.181755  1
  O  O192  1  0.499926  0.500913  0.262896  1
  O  O193  1  0.499898  0.000000  0.262895  1
  O  O194  1  0.499867  0.876010  0.168266  1
  O  O195  1  0.499978  0.623943  0.168262  1
  O  O196  1  0.592690  0.838319  0.150672  1
  O  O197  1  0.407115  0.838293  0.150662  1
  O  O198  1  0.407166  0.661642  0.150668  1
  O  O199  1  0.592740  0.661664  0.150660  1
  O  O200  1  0.499925  0.749976  0.161274  1
  O  O201  1  0.000000  0.858044  0.247468  1
  O  O202  1  -0.000000  0.641935  0.247467  1
  O  O203  1  0.094001  0.842861  0.265813  1
  O  O204  1  0.905878  0.842830  0.265800  1
  O  O205  1  0.905901  0.657130  0.265802  1
  O  O206  1  0.094021  0.657107  0.265812  1
  O  O207  1  0.000000  0.948252  0.262444  1
  O  O208  1  0.000000  0.551718  0.262442  1
  O  O209  1  0.000000  0.948230  0.232693  1
  O  O210  1  0.000000  0.551745  0.232692  1
  O  O211  1  0.910048  0.841501  0.228544  1
  O  O212  1  0.089726  0.841501  0.228534  1
  O  O213  1  0.089745  0.658461  0.228534  1
  O  O214  1  0.910066  0.658479  0.228541  1
  O  O215  1  0.260798  0.948803  0.195279  1
  O  O216  1  0.739038  0.948845  0.195283  1
  O  O217  1  0.739086  0.551169  0.195273  1
  O  O218  1  0.260838  0.551137  0.195283  1
  O  O219  1  0.294639  0.553082  0.244635  1
  O  O220  1  0.705146  0.553046  0.244629  1
  O  O221  1  0.705155  0.946922  0.244634  1
  O  O222  1  0.294653  0.946891  0.244635  1
  O  O223  1  0.245250  0.949364  0.173038  1
  O  O224  1  0.754667  0.949399  0.173047  1
  O  O225  1  0.754610  0.550595  0.173031  1
  O  O226  1  0.245201  0.550568  0.173046  1
  O  O227  1  0.286644  0.845379  0.134519  1
  O  O228  1  0.713094  0.845545  0.134538  1
  O  O229  1  0.713182  0.654599  0.134515  1
  O  O230  1  0.286738  0.654438  0.134534  1
  O  O231  1  0.239620  0.874574  0.155239  1
  O  O232  1  0.760212  0.874588  0.155255  1
  O  O233  1  0.760246  0.625381  0.155233  1
  O  O234  1  0.239652  0.625365  0.155252  1
  O  O235  1  0.279888  0.749958  0.149254  1
  O  O236  1  0.719963  0.749999  0.149253  1
  O  O237  1  0.784245  0.749971  0.268852  1
  O  O238  1  0.215606  0.749988  0.268872  1
  O  O239  1  0.747807  0.873669  0.275312  1
  O  O240  1  0.252027  0.873685  0.275342  1
  O  O241  1  0.252051  0.626290  0.275341  1
  O  O242  1  0.747842  0.626271  0.275317  1
  O  O243  1  0.755251  0.841577  0.254376  1
  O  O244  1  0.244637  0.841596  0.254399  1
  O  O245  1  0.244659  0.658386  0.254398  1
  O  O246  1  0.755265  0.658354  0.254378  1
  O  O247  1  0.738734  0.844671  0.232422  1
  O  O248  1  0.261003  0.844620  0.232438  1
  O  O249  1  0.261023  0.655354  0.232437  1
  O  O250  1  0.738760  0.655309  0.232424  1
  O  O251  1  0.802004  0.874130  0.212310  1
  O  O252  1  0.197909  0.874131  0.212316  1
  O  O253  1  0.197917  0.625836  0.212316  1
  O  O254  1  0.801993  0.625848  0.212309  1
  O  O255  1  0.807318  0.749988  0.220188  1
  O  O256  1  0.192503  0.749984  0.220190  1
  O  O257  1  0.089398  0.946963  0.199865  1
  O  O258  1  0.910469  0.946968  0.199857  1
  O  O259  1  0.910486  0.553007  0.199860  1
  O  O260  1  0.089415  0.553021  0.199858  1
  O  O261  1  0.201004  0.000000  0.214094  1
  O  O262  1  0.094877  0.948955  0.161577  1
  O  O263  1  0.905044  0.948926  0.161583  1
  O  O264  1  0.904995  0.551011  0.161575  1
  O  O265  1  0.094829  0.551031  0.161582  1
  O  O266  1  0.714769  0.944818  0.293893  1
  O  O267  1  0.285432  0.944820  0.293927  1
  O  O268  1  0.285434  0.555136  0.293925  1
  O  O269  1  0.714803  0.555102  0.293897  1
  O  O270  1  0.594463  0.939744  0.277772  1
  O  O271  1  0.405381  0.939736  0.277779  1
  O  O272  1  0.405393  0.560220  0.277779  1
  O  O273  1  0.594475  0.560222  0.277776  1
  O  O274  1  0.591932  0.846854  0.245654  1
  O  O275  1  0.407866  0.846833  0.245658  1
  O  O276  1  0.407887  0.653118  0.245658  1
  O  O277  1  0.591952  0.653117  0.245655  1
  O  O278  1  -0.000000  0.961504  0.180374  1
  O  O279  1  0.000000  0.538469  0.180373  1
  O  O280  1  0.499907  0.871842  0.263347  1
  O  O281  1  0.499929  0.628112  0.263347  1
  O  O282  1  0.499928  0.749978  0.254892  1
  O  O283  1  0.798917  0.000000  0.214093  1
  O  O284  1  0.249113  0.500454  0.274750  1
  O  O285  1  0.750724  0.500426  0.274724  1
  O  O286  1  0.750744  0.000000  0.274723  1
  O  O287  1  0.249121  0.000000  0.274752  1
  O  O288  1  0.407418  0.455440  0.246427  1
  O  O289  1  0.592375  0.455403  0.246424  1
  O  O290  1  0.592383  0.044563  0.246427  1
  O  O291  1  0.407421  0.044544  0.246428  1
  O  O292  1  0.499926  0.000000  0.165287  1
  O  O293  1  0.499926  0.499043  0.165285  1
  O  O294  1  0.499881  0.376008  0.259918  1
  O  O295  1  0.499896  0.123945  0.259923  1
  O  O296  1  0.592678  0.338310  0.277515  1
  O  O297  1  0.407103  0.338306  0.277517  1
  O  O298  1  0.407100  0.161661  0.277520  1
  O  O299  1  0.592674  0.161648  0.277522  1
  O  O300  1  0.499894  0.249974  0.266910  1
  O  O301  1  0.000000  0.358029  0.180713  1
  O  O302  1  0.000000  0.141944  0.180714  1
  O  O303  1  0.093973  0.342818  0.162378  1
  O  O304  1  0.905853  0.342866  0.162369  1
  O  O305  1  0.905892  0.157146  0.162377  1
  O  O306  1  0.094012  0.157100  0.162371  1
  O  O307  1  0.000000  0.448243  0.165739  1
  O  O308  1  0.000000  0.051723  0.165740  1
  O  O309  1  0.000000  0.448221  0.195489  1
  O  O310  1  0.000000  0.051756  0.195489  1
  O  O311  1  0.910110  0.341502  0.199645  1
  O  O312  1  0.089790  0.341491  0.199641  1
  O  O313  1  0.089771  0.158479  0.199645  1
  O  O314  1  0.910089  0.158476  0.199642  1
  O  O315  1  0.260761  0.448818  0.232907  1
  O  O316  1  0.739000  0.448812  0.232896  1
  O  O317  1  0.739020  0.051158  0.232900  1
  O  O318  1  0.260774  0.051158  0.232908  1
  O  O319  1  0.294657  0.053055  0.183551  1
  O  O320  1  0.705156  0.053083  0.183548  1
  O  O321  1  0.705214  0.446909  0.183546  1
  O  O322  1  0.294702  0.446890  0.183551  1
  O  O323  1  0.245213  0.449421  0.255148  1
  O  O324  1  0.754631  0.449339  0.255133  1
  O  O325  1  0.754623  0.050645  0.255137  1
  O  O326  1  0.245213  0.050547  0.255149  1
  O  O327  1  0.286653  0.345486  0.293655  1
  O  O328  1  0.713100  0.345463  0.293654  1
  O  O329  1  0.713087  0.154554  0.293666  1
  O  O330  1  0.286622  0.154503  0.293656  1
  O  O331  1  0.239607  0.374601  0.272938  1
  O  O332  1  0.760197  0.374562  0.272934  1
  O  O333  1  0.760191  0.125383  0.272946  1
  O  O334  1  0.239607  0.125373  0.272938  1
  O  O335  1  0.279836  0.249988  0.278930  1
  O  O336  1  0.719911  0.249974  0.278932  1
  O  O337  1  0.784253  0.250001  0.159315  1
  O  O338  1  0.215619  0.249962  0.159320  1
  O  O339  1  0.747818  0.373696  0.152839  1
  O  O340  1  0.252028  0.373661  0.152863  1
  O  O341  1  0.252055  0.126265  0.152846  1
  O  O342  1  0.747842  0.126293  0.152861  1
  O  O343  1  0.755211  0.341626  0.173783  1
  O  O344  1  0.244606  0.341559  0.173801  1
  O  O345  1  0.244641  0.158336  0.173789  1
  O  O346  1  0.755251  0.158415  0.173798  1
  O  O347  1  0.738828  0.344627  0.195743  1
  O  O348  1  0.261096  0.344641  0.195757  1
  O  O349  1  0.261054  0.155336  0.195749  1
  O  O350  1  0.738785  0.155330  0.195754  1
  O  O351  1  0.801941  0.374136  0.215864  1
  O  O352  1  0.197871  0.374127  0.215871  1
  O  O353  1  0.197908  0.125838  0.215869  1
  O  O354  1  0.801981  0.125848  0.215869  1
  O  O355  1  0.807337  0.249990  0.207992  1
  O  O356  1  0.192534  0.249983  0.207995  1
  O  O357  1  0.089358  0.446957  0.228320  1
  O  O358  1  0.910427  0.446952  0.228322  1
  O  O359  1  0.910452  0.053032  0.228327  1
  O  O360  1  0.089382  0.053016  0.228320  1
  O  O361  1  0.798869  0.499992  0.214087  1
  O  O362  1  0.094835  0.448959  0.266606  1
  O  O363  1  0.905003  0.448918  0.266598  1
  O  O364  1  0.905004  0.051063  0.266600  1
  O  O365  1  0.094839  0.051005  0.266608  1
  O  O366  1  0.714494  0.444895  0.134259  1
  O  O367  1  0.285150  0.444761  0.134278  1
  O  O368  1  0.285334  0.055066  0.134265  1
  O  O369  1  0.714699  0.055172  0.134278  1
  O  O370  1  0.594451  0.439746  0.150400  1
  O  O371  1  0.405368  0.439734  0.150406  1
  O  O372  1  0.405418  0.060216  0.150402  1
  O  O373  1  0.594501  0.060216  0.150408  1
  O  O374  1  0.591974  0.346851  0.182521  1
  O  O375  1  0.407910  0.346836  0.182525  1
  O  O376  1  0.407892  0.153112  0.182524  1
  O  O377  1  0.591958  0.153140  0.182525  1
  O  O378  1  -0.000000  0.461495  0.247807  1
  O  O379  1  -0.000000  0.038474  0.247809  1
  O  O380  1  0.499929  0.371846  0.164832  1
  O  O381  1  0.499933  0.128111  0.164834  1
  O  O382  1  0.499922  0.249982  0.173288  1
  O  O383  1  0.200967  0.499982  0.214093  1
  O  O384  1  0.249174  0.000000  0.153441  1
  O  O385  1  0.750784  0.000000  0.153450  1
  O  O386  1  0.750709  0.499532  0.153435  1
  O  O387  1  0.249092  0.499502  0.153450  1
  O  O388  1  0.499883  0.749981  0.109269  1
  O  O389  1  0.409999  0.845740  0.118950  1
  O  O390  1  0.590058  0.845745  0.118921  1
  O  O391  1  0.589814  0.654229  0.118947  1
  O  O392  1  0.409754  0.654172  0.118916  1
  O  O393  1  0.499663  0.873151  0.101057  1
  O  O394  1  0.500175  0.626830  0.101053  1
  O  O395  1  0.403885  0.558548  0.086994  1
  O  O396  1  0.596481  0.557568  0.087086  1
  O  O397  1  0.595945  0.941456  0.087000  1
  O  O398  1  0.403348  0.942409  0.087093  1
  O  O399  1  0.239984  0.847784  0.112672  1
  O  O400  1  0.760350  0.848337  0.112723  1
  O  O401  1  0.759829  0.652181  0.112668  1
  O  O402  1  0.239463  0.651620  0.112720  1
  O  O403  1  0.312250  0.949867  0.122402  1
  O  O404  1  0.687283  0.950075  0.122421  1
  O  O405  1  0.687580  0.550105  0.122400  1
  O  O406  1  0.312453  0.549877  0.122424  1
  O  O407  1  0.259642  0.949027  0.073112  1
  O  O408  1  0.740364  0.949027  0.073115  1
  O  O409  1  0.740195  0.550940  0.073106  1
  O  O410  1  0.259458  0.550878  0.073116  1
  O  O411  1  0.247988  0.998908  0.092694  1
  O  O412  1  0.254654  0.873188  0.091361  1
  O  O413  1  0.746292  0.874485  0.091468  1
  O  O414  1  0.745163  0.626795  0.091356  1
  O  O415  1  0.253517  0.625502  0.091462  1
  O  O416  1  0.095101  0.837191  0.098899  1
  O  O417  1  0.905434  0.837497  0.098941  1
  O  O418  1  0.904713  0.662777  0.098894  1
  O  O419  1  0.094381  0.662480  0.098938  1
  O  O420  1  0.225625  0.749529  0.098635  1
  O  O421  1  0.774193  0.750447  0.098634  1
  O  O422  1  0.090695  0.948859  0.066984  1
  O  O423  1  0.909270  0.949271  0.067010  1
  O  O424  1  0.909146  0.551114  0.066980  1
  O  O425  1  0.090577  0.550717  0.067005  1
  O  O426  1  0.214713  0.944746  0.050974  1
  O  O427  1  0.785389  0.944854  0.050986  1
  O  O428  1  0.785177  0.555180  0.050967  1
  O  O429  1  0.214526  0.555051  0.050985  1
  O  O430  1  0.000000  0.749991  0.088510  1
  O  O431  1  0.000000  0.874929  0.081433  1
  O  O432  1  0.000000  0.625055  0.081428  1
  O  O433  1  0.499328  0.500143  0.101919  1
  O  O434  1  0.500490  0.000000  0.101924  1
  O  O435  1  0.751835  0.501075  0.092690  1
  O  O436  1  -0.000000  0.249976  0.075976  1
  O  O437  1  0.909770  0.345773  0.066329  1
  O  O438  1  0.089827  0.345721  0.066297  1
  O  O439  1  0.090071  0.154177  0.066330  1
  O  O440  1  0.910012  0.154187  0.066302  1
  O  O441  1  0.000000  0.373141  0.084191  1
  O  O442  1  0.000000  0.126833  0.084195  1
  O  O443  1  0.903352  0.057592  0.098163  1
  O  O444  1  0.095944  0.058550  0.098254  1
  O  O445  1  0.096482  0.442407  0.098157  1
  O  O446  1  0.903889  0.441434  0.098248  1
  O  O447  1  0.786760  0.345526  0.050711  1
  O  O448  1  0.213210  0.345364  0.050730  1
  O  O449  1  0.213125  0.154420  0.050715  1
  O  O450  1  0.786668  0.154586  0.050733  1
  O  O451  1  0.739476  0.348340  0.072525  1
  O  O452  1  0.259838  0.347786  0.072577  1
  O  O453  1  0.260357  0.151615  0.072529  1
  O  O454  1  0.739996  0.152172  0.072580  1
  O  O455  1  0.812499  0.450081  0.062825  1
  O  O456  1  0.187561  0.449857  0.062846  1
  O  O457  1  0.187363  0.049870  0.062825  1
  O  O458  1  0.812195  0.050080  0.062845  1
  O  O459  1  0.759458  0.449077  0.112129  1
  O  O460  1  0.240184  0.449017  0.112139  1
  O  O461  1  0.240368  0.050901  0.112135  1
  O  O462  1  0.759624  0.050903  0.112138  1
  O  O463  1  0.748056  0.001092  0.092545  1
  O  O464  1  0.251851  0.498912  0.092559  1
  O  O465  1  0.753527  0.374479  0.093782  1
  O  O466  1  0.245172  0.373189  0.093888  1
  O  O467  1  0.246308  0.125503  0.093787  1
  O  O468  1  0.754655  0.126802  0.093894  1
  O  O469  1  0.594389  0.337499  0.086307  1
  O  O470  1  0.404721  0.337193  0.086350  1
  O  O471  1  0.405440  0.162483  0.086309  1
  O  O472  1  0.595109  0.162779  0.086353  1
  O  O473  1  0.725629  0.250447  0.086613  1
  O  O474  1  0.274194  0.249530  0.086614  1
  O  O475  1  0.590566  0.449265  0.118238  1
  O  O476  1  0.409136  0.448867  0.118265  1
  O  O477  1  0.409254  0.050721  0.118244  1
  O  O478  1  0.590687  0.051132  0.118268  1
  O  O479  1  0.499917  0.249994  0.096738  1
  O  O480  1  0.499794  0.374929  0.103817  1
  O  O481  1  0.500014  0.125063  0.103820  1
  O  O482  1  0.000000  0.000000  0.083331  1
  O  O483  1  0.000000  0.499835  0.083325  1
  O  O484  1  0.000000  0.749964  0.838071  1
  O  O485  1  0.909978  0.845628  0.847755  1
  O  O486  1  0.090041  0.845801  0.847717  1
  O  O487  1  0.090071  0.654124  0.847717  1
  O  O488  1  0.910011  0.654218  0.847749  1
  O  O489  1  -0.000000  0.873132  0.829857  1
  O  O490  1  -0.000000  0.626833  0.829854  1
  O  O491  1  0.903425  0.557445  0.815894  1
  O  O492  1  0.096021  0.558717  0.815786  1
  O  O493  1  0.095947  0.941251  0.815788  1
  O  O494  1  0.903359  0.942594  0.815903  1
  O  O495  1  0.786715  0.845482  0.863339  1
  O  O496  1  0.213151  0.845428  0.863324  1
  O  O497  1  0.213179  0.654537  0.863323  1
  O  O498  1  0.786719  0.654502  0.863327  1
  O  O499  1  0.739843  0.848103  0.841499  1
  O  O500  1  0.260240  0.848071  0.841503  1
  O  O501  1  0.260272  0.651915  0.841502  1
  O  O502  1  0.739921  0.651912  0.841485  1
  O  O503  1  0.812621  0.949935  0.851206  1
  O  O504  1  0.187522  0.949988  0.851219  1
  O  O505  1  0.187668  0.549973  0.851222  1
  O  O506  1  0.812402  0.549997  0.851211  1
  O  O507  1  0.759789  0.948924  0.801893  1
  O  O508  1  0.240483  0.949030  0.801924  1
  O  O509  1  0.240540  0.550911  0.801926  1
  O  O510  1  0.759779  0.550870  0.801903  1
  O  O511  1  0.747940  0.000000  0.821375  1
  O  O512  1  0.754423  0.873743  0.820203  1
  O  O513  1  0.246104  0.874024  0.820238  1
  O  O514  1  0.246176  0.625967  0.820235  1
  O  O515  1  0.754539  0.626424  0.820176  1
  O  O516  1  0.594903  0.837406  0.827711  1
  O  O517  1  0.405256  0.837349  0.827730  1
  O  O518  1  0.405309  0.662681  0.827734  1
  O  O519  1  0.594985  0.662638  0.827703  1
  O  O520  1  0.725804  0.750050  0.827442  1
  O  O521  1  0.274375  0.749996  0.827432  1
  O  O522  1  0.590807  0.948978  0.795767  1
  O  O523  1  0.409378  0.949190  0.795820  1
  O  O524  1  0.409403  0.550835  0.795817  1
  O  O525  1  0.590835  0.551076  0.795772  1
  O  O526  1  0.500071  0.750017  0.817311  1
  O  O527  1  0.499928  0.874950  0.810230  1
  O  O528  1  0.499914  0.625079  0.810232  1
  O  O529  1  0.000000  0.500162  0.830719  1
  O  O530  1  -0.000000  0.000000  0.830724  1
  O  O531  1  0.748080  0.500670  0.821454  1
  O  O532  1  0.500000  0.249971  0.804780  1
  O  O533  1  0.409948  0.345680  0.795102  1
  O  O534  1  0.590012  0.345780  0.795130  1
  O  O535  1  0.589976  0.154077  0.795135  1
  O  O536  1  0.409914  0.154264  0.795103  1
  O  O537  1  0.499598  0.373152  0.812993  1
  O  O538  1  0.499515  0.126835  0.812998  1
  O  O539  1  0.403351  0.057389  0.826950  1
  O  O540  1  0.595943  0.058718  0.827067  1
  O  O541  1  0.596008  0.441328  0.827056  1
  O  O542  1  0.403422  0.442582  0.826949  1
  O  O543  1  0.239855  0.348097  0.801362  1
  O  O544  1  0.760245  0.348085  0.801342  1
  O  O545  1  0.760169  0.151933  0.801358  1
  O  O546  1  0.239819  0.151889  0.801364  1
  O  O547  1  0.312558  0.449974  0.791647  1
  O  O548  1  0.687499  0.449984  0.791633  1
  O  O549  1  0.687722  0.049967  0.791627  1
  O  O550  1  0.312444  0.049998  0.791645  1
  O  O551  1  0.259816  0.449044  0.840949  1
  O  O552  1  0.740522  0.448993  0.840927  1
  O  O553  1  0.740516  0.050783  0.840918  1
  O  O554  1  0.259773  0.050881  0.840948  1
  O  O555  1  0.247953  0.000000  0.821416  1
  O  O556  1  0.248009  0.499457  0.821428  1
  O  O557  1  0.254504  0.373643  0.822664  1
  O  O558  1  0.746148  0.374102  0.822603  1
  O  O559  1  0.746036  0.126068  0.822632  1
  O  O560  1  0.254439  0.126347  0.822667  1
  O  O561  1  0.094925  0.337377  0.815144  1
  O  O562  1  0.905276  0.337360  0.815120  1
  O  O563  1  0.905197  0.162662  0.815131  1
  O  O564  1  0.094875  0.162642  0.815142  1
  O  O565  1  0.225770  0.249995  0.815413  1
  O  O566  1  0.774329  0.250047  0.815418  1
  O  O567  1  0.090849  0.448947  0.847075  1
  O  O568  1  0.909420  0.449245  0.847035  1
  O  O569  1  0.909375  0.050799  0.847030  1
  O  O570  1  0.090833  0.051086  0.847076  1
  O  O571  1  0.214825  0.444821  0.863083  1
  O  O572  1  0.785492  0.444788  0.863058  1
  O  O573  1  0.785441  0.055106  0.863056  1
  O  O574  1  0.214811  0.055109  0.863084  1
  O  O575  1  -0.000000  0.250009  0.825542  1
  O  O576  1  -0.000000  0.374946  0.832620  1
  O  O577  1  0.000000  0.125061  0.832620  1
  O  O578  1  0.500750  0.499850  0.812123  1
  O  O579  1  0.500761  0.000000  0.812127  1
  O  O580  1  0.407454  0.955436  0.667627  1
  O  O581  1  0.592412  0.955411  0.667624  1
  O  O582  1  0.592417  0.544527  0.667622  1
  O  O583  1  0.407457  0.544550  0.667623  1
  O  O584  1  0.499926  0.500913  0.748764  1
  O  O585  1  0.499898  0.000000  0.748763  1
  O  O586  1  0.499867  0.876010  0.654134  1
  O  O587  1  0.499978  0.623943  0.654130  1
  O  O588  1  0.592690  0.838319  0.636540  1
  O  O589  1  0.407115  0.838293  0.636530  1
  O  O590  1  0.407166  0.661642  0.636536  1
  O  O591  1  0.592740  0.661664  0.636528  1
  O  O592  1  0.499925  0.749976  0.647142  1
  O  O593  1  0.000000  0.858044  0.733336  1
  O  O594  1  0.000000  0.641935  0.733335  1
  O  O595  1  0.094001  0.842861  0.751681  1
  O  O596  1  0.905878  0.842830  0.751668  1
  O  O597  1  0.905901  0.657130  0.751670  1
  O  O598  1  0.094021  0.657107  0.751680  1
  O  O599  1  0.000000  0.948252  0.748312  1
  O  O600  1  -0.000000  0.551718  0.748310  1
  O  O601  1  0.000000  0.948230  0.718561  1
  O  O602  1  -0.000000  0.551745  0.718560  1
  O  O603  1  0.910048  0.841501  0.714412  1
  O  O604  1  0.089726  0.841501  0.714402  1
  O  O605  1  0.089745  0.658461  0.714402  1
  O  O606  1  0.910066  0.658479  0.714409  1
  O  O607  1  0.260798  0.948803  0.681147  1
  O  O608  1  0.739038  0.948845  0.681151  1
  O  O609  1  0.739086  0.551169  0.681141  1
  O  O610  1  0.260838  0.551137  0.681151  1
  O  O611  1  0.294639  0.553082  0.730503  1
  O  O612  1  0.705146  0.553046  0.730497  1
  O  O613  1  0.705155  0.946922  0.730502  1
  O  O614  1  0.294653  0.946891  0.730503  1
  O  O615  1  0.245250  0.949364  0.658906  1
  O  O616  1  0.754667  0.949399  0.658914  1
  O  O617  1  0.754610  0.550595  0.658899  1
  O  O618  1  0.245201  0.550568  0.658914  1
  O  O619  1  0.286644  0.845379  0.620387  1
  O  O620  1  0.713094  0.845545  0.620406  1
  O  O621  1  0.713182  0.654599  0.620383  1
  O  O622  1  0.286738  0.654438  0.620402  1
  O  O623  1  0.239620  0.874574  0.641107  1
  O  O624  1  0.760212  0.874588  0.641122  1
  O  O625  1  0.760246  0.625381  0.641101  1
  O  O626  1  0.239652  0.625365  0.641120  1
  O  O627  1  0.279888  0.749958  0.635122  1
  O  O628  1  0.719963  0.749999  0.635121  1
  O  O629  1  0.784245  0.749971  0.754720  1
  O  O630  1  0.215606  0.749988  0.754740  1
  O  O631  1  0.747807  0.873669  0.761180  1
  O  O632  1  0.252027  0.873685  0.761210  1
  O  O633  1  0.252051  0.626290  0.761209  1
  O  O634  1  0.747842  0.626271  0.761185  1
  O  O635  1  0.755251  0.841577  0.740243  1
  O  O636  1  0.244637  0.841596  0.740267  1
  O  O637  1  0.244659  0.658386  0.740266  1
  O  O638  1  0.755265  0.658354  0.740246  1
  O  O639  1  0.738734  0.844671  0.718290  1
  O  O640  1  0.261003  0.844620  0.718306  1
  O  O641  1  0.261023  0.655354  0.718305  1
  O  O642  1  0.738760  0.655309  0.718291  1
  O  O643  1  0.802004  0.874130  0.698178  1
  O  O644  1  0.197909  0.874131  0.698184  1
  O  O645  1  0.197917  0.625836  0.698184  1
  O  O646  1  0.801993  0.625848  0.698177  1
  O  O647  1  0.807318  0.749988  0.706056  1
  O  O648  1  0.192503  0.749984  0.706058  1
  O  O649  1  0.089398  0.946963  0.685732  1
  O  O650  1  0.910469  0.946968  0.685725  1
  O  O651  1  0.910486  0.553007  0.685728  1
  O  O652  1  0.089415  0.553021  0.685726  1
  O  O653  1  0.201004  0.000000  0.699962  1
  O  O654  1  0.094877  0.948955  0.647445  1
  O  O655  1  0.905044  0.948926  0.647451  1
  O  O656  1  0.904995  0.551011  0.647443  1
  O  O657  1  0.094829  0.551031  0.647449  1
  O  O658  1  0.714769  0.944818  0.779761  1
  O  O659  1  0.285432  0.944820  0.779795  1
  O  O660  1  0.285434  0.555136  0.779793  1
  O  O661  1  0.714803  0.555102  0.779765  1
  O  O662  1  0.594463  0.939744  0.763640  1
  O  O663  1  0.405381  0.939736  0.763647  1
  O  O664  1  0.405393  0.560220  0.763647  1
  O  O665  1  0.594475  0.560222  0.763644  1
  O  O666  1  0.591932  0.846854  0.731522  1
  O  O667  1  0.407866  0.846833  0.731526  1
  O  O668  1  0.407887  0.653118  0.731526  1
  O  O669  1  0.591952  0.653117  0.731523  1
  O  O670  1  -0.000000  0.961504  0.666242  1
  O  O671  1  0.000000  0.538469  0.666241  1
  O  O672  1  0.499907  0.871842  0.749215  1
  O  O673  1  0.499929  0.628112  0.749215  1
  O  O674  1  0.499928  0.749978  0.740759  1
  O  O675  1  0.798917  0.000000  0.699961  1
  O  O676  1  0.249113  0.500454  0.760618  1
  O  O677  1  0.750724  0.500426  0.760592  1
  O  O678  1  0.750744  0.000000  0.760591  1
  O  O679  1  0.249121  0.000000  0.760620  1
  O  O680  1  0.407418  0.455440  0.732295  1
  O  O681  1  0.592375  0.455403  0.732292  1
  O  O682  1  0.592383  0.044563  0.732295  1
  O  O683  1  0.407421  0.044544  0.732296  1
  O  O684  1  0.499926  0.000000  0.651155  1
  O  O685  1  0.499926  0.499043  0.651153  1
  O  O686  1  0.499881  0.376008  0.745786  1
  O  O687  1  0.499896  0.123945  0.745791  1
  O  O688  1  0.592678  0.338310  0.763383  1
  O  O689  1  0.407103  0.338306  0.763385  1
  O  O690  1  0.407100  0.161661  0.763388  1
  O  O691  1  0.592674  0.161648  0.763390  1
  O  O692  1  0.499894  0.249974  0.752778  1
  O  O693  1  0.000000  0.358029  0.666581  1
  O  O694  1  0.000000  0.141944  0.666581  1
  O  O695  1  0.093973  0.342818  0.648246  1
  O  O696  1  0.905853  0.342866  0.648237  1
  O  O697  1  0.905892  0.157146  0.648245  1
  O  O698  1  0.094012  0.157100  0.648239  1
  O  O699  1  0.000000  0.448243  0.651607  1
  O  O700  1  -0.000000  0.051723  0.651608  1
  O  O701  1  0.000000  0.448221  0.681357  1
  O  O702  1  -0.000000  0.051756  0.681357  1
  O  O703  1  0.910110  0.341502  0.685513  1
  O  O704  1  0.089790  0.341491  0.685508  1
  O  O705  1  0.089771  0.158479  0.685513  1
  O  O706  1  0.910089  0.158476  0.685509  1
  O  O707  1  0.260761  0.448818  0.718775  1
  O  O708  1  0.739000  0.448812  0.718764  1
  O  O709  1  0.739020  0.051158  0.718768  1
  O  O710  1  0.260774  0.051158  0.718776  1
  O  O711  1  0.294657  0.053055  0.669419  1
  O  O712  1  0.705156  0.053083  0.669416  1
  O  O713  1  0.705214  0.446909  0.669414  1
  O  O714  1  0.294702  0.446890  0.669418  1
  O  O715  1  0.245213  0.449421  0.741016  1
  O  O716  1  0.754631  0.449339  0.741001  1
  O  O717  1  0.754623  0.050645  0.741005  1
  O  O718  1  0.245213  0.050547  0.741016  1
  O  O719  1  0.286653  0.345486  0.779523  1
  O  O720  1  0.713100  0.345463  0.779521  1
  O  O721  1  0.713087  0.154554  0.779534  1
  O  O722  1  0.286622  0.154503  0.779524  1
  O  O723  1  0.239607  0.374601  0.758806  1
  O  O724  1  0.760197  0.374562  0.758802  1
  O  O725  1  0.760191  0.125383  0.758814  1
  O  O726  1  0.239607  0.125373  0.758806  1
  O  O727  1  0.279836  0.249988  0.764798  1
  O  O728  1  0.719911  0.249974  0.764800  1
  O  O729  1  0.784253  0.250001  0.645183  1
  O  O730  1  0.215619  0.249962  0.645188  1
  O  O731  1  0.747818  0.373696  0.638707  1
  O  O732  1  0.252028  0.373661  0.638731  1
  O  O733  1  0.252055  0.126265  0.638714  1
  O  O734  1  0.747842  0.126293  0.638729  1
  O  O735  1  0.755211  0.341626  0.659651  1
  O  O736  1  0.244606  0.341559  0.659669  1
  O  O737  1  0.244641  0.158336  0.659657  1
  O  O738  1  0.755251  0.158415  0.659666  1
  O  O739  1  0.738828  0.344627  0.681611  1
  O  O740  1  0.261096  0.344641  0.681624  1
  O  O741  1  0.261054  0.155336  0.681617  1
  O  O742  1  0.738785  0.155330  0.681622  1
  O  O743  1  0.801941  0.374136  0.701732  1
  O  O744  1  0.197871  0.374127  0.701739  1
  O  O745  1  0.197908  0.125838  0.701737  1
  O  O746  1  0.801981  0.125848  0.701737  1
  O  O747  1  0.807337  0.249990  0.693860  1
  O  O748  1  0.192534  0.249983  0.693863  1
  O  O749  1  0.089358  0.446957  0.714188  1
  O  O750  1  0.910427  0.446952  0.714190  1
  O  O751  1  0.910452  0.053032  0.714195  1
  O  O752  1  0.089382  0.053016  0.714188  1
  O  O753  1  0.798869  0.499992  0.699955  1
  O  O754  1  0.094835  0.448959  0.752474  1
  O  O755  1  0.905003  0.448918  0.752466  1
  O  O756  1  0.905004  0.051063  0.752468  1
  O  O757  1  0.094839  0.051005  0.752476  1
  O  O758  1  0.714494  0.444895  0.620127  1
  O  O759  1  0.285150  0.444761  0.620146  1
  O  O760  1  0.285334  0.055066  0.620133  1
  O  O761  1  0.714699  0.055172  0.620146  1
  O  O762  1  0.594451  0.439746  0.636268  1
  O  O763  1  0.405368  0.439734  0.636274  1
  O  O764  1  0.405418  0.060216  0.636270  1
  O  O765  1  0.594501  0.060216  0.636275  1
  O  O766  1  0.591974  0.346851  0.668389  1
  O  O767  1  0.407910  0.346836  0.668393  1
  O  O768  1  0.407892  0.153112  0.668392  1
  O  O769  1  0.591958  0.153140  0.668393  1
  O  O770  1  -0.000000  0.461495  0.733675  1
  O  O771  1  0.000000  0.038474  0.733677  1
  O  O772  1  0.499929  0.371846  0.650700  1
  O  O773  1  0.499933  0.128111  0.650702  1
  O  O774  1  0.499922  0.249982  0.659155  1
  O  O775  1  0.200967  0.499982  0.699961  1
  O  O776  1  0.249174  0.000000  0.639309  1
  O  O777  1  0.750784  0.000000  0.639318  1
  O  O778  1  0.750709  0.499532  0.639302  1
  O  O779  1  0.249092  0.499502  0.639318  1
  O  O780  1  0.000000  0.500884  0.505829  1
  O  O781  1  0.000000  0.000000  0.505832  1
  O  O782  1  0.499883  0.749981  0.595137  1
  O  O783  1  0.409999  0.845740  0.604817  1
  O  O784  1  0.590058  0.845745  0.604789  1
  O  O785  1  0.589814  0.654229  0.604815  1
  O  O786  1  0.409754  0.654172  0.604784  1
  O  O787  1  0.499663  0.873151  0.586925  1
  O  O788  1  0.500175  0.626830  0.586921  1
  O  O789  1  0.403885  0.558548  0.572862  1
  O  O790  1  0.596481  0.557568  0.572954  1
  O  O791  1  0.595945  0.941456  0.572868  1
  O  O792  1  0.403348  0.942409  0.572961  1
  O  O793  1  0.500030  0.858002  0.490402  1
  O  O794  1  0.499951  0.641911  0.490400  1
  O  O795  1  0.594064  0.842844  0.508745  1
  O  O796  1  0.405945  0.842785  0.508738  1
  O  O797  1  0.405895  0.657076  0.508743  1
  O  O798  1  0.594016  0.657116  0.508736  1
  O  O799  1  0.499964  0.948214  0.505376  1
  O  O800  1  0.499968  0.551695  0.505375  1
  O  O801  1  0.500008  0.948197  0.475627  1
  O  O802  1  0.500014  0.551723  0.475625  1
  O  O803  1  0.410152  0.841471  0.471474  1
  O  O804  1  0.589831  0.841473  0.471470  1
  O  O805  1  0.589842  0.658452  0.471472  1
  O  O806  1  0.410162  0.658444  0.471470  1
  O  O807  1  0.794758  0.553053  0.487565  1
  O  O808  1  0.205253  0.553024  0.487566  1
  O  O809  1  0.205216  0.946869  0.487566  1
  O  O810  1  0.794709  0.946883  0.487568  1
  O  O811  1  0.239984  0.847784  0.598540  1
  O  O812  1  0.760350  0.848337  0.598591  1
  O  O813  1  0.759829  0.652181  0.598536  1
  O  O814  1  0.239463  0.651620  0.598588  1
  O  O815  1  0.312250  0.949867  0.608270  1
  O  O816  1  0.687283  0.950075  0.608289  1
  O  O817  1  0.687580  0.550105  0.608268  1
  O  O818  1  0.312453  0.549877  0.608292  1
  O  O819  1  0.259642  0.949027  0.558980  1
  O  O820  1  0.740364  0.949027  0.558983  1
  O  O821  1  0.740195  0.550940  0.558974  1
  O  O822  1  0.259458  0.550878  0.558984  1
  O  O823  1  0.247988  0.998908  0.578562  1
  O  O824  1  0.254654  0.873188  0.577229  1
  O  O825  1  0.746292  0.874485  0.577336  1
  O  O826  1  0.745163  0.626795  0.577224  1
  O  O827  1  0.253517  0.625502  0.577329  1
  O  O828  1  0.284289  0.749935  0.511797  1
  O  O829  1  0.715656  0.749975  0.511796  1
  O  O830  1  0.247899  0.873632  0.518257  1
  O  O831  1  0.752103  0.873666  0.518272  1
  O  O832  1  0.752074  0.626272  0.518250  1
  O  O833  1  0.247860  0.626239  0.518272  1
  O  O834  1  0.255303  0.841544  0.497318  1
  O  O835  1  0.744702  0.841600  0.497328  1
  O  O836  1  0.744650  0.658387  0.497313  1
  O  O837  1  0.255259  0.658310  0.497327  1
  O  O838  1  0.238848  0.844616  0.475362  1
  O  O839  1  0.761111  0.844603  0.475369  1
  O  O840  1  0.761143  0.655299  0.475358  1
  O  O841  1  0.238877  0.655302  0.475368  1
  O  O842  1  0.307399  0.749956  0.463123  1
  O  O843  1  0.692596  0.749966  0.463120  1
  O  O844  1  0.701086  0.000000  0.457027  1
  O  O845  1  0.298986  0.000000  0.457026  1
  O  O846  1  0.095101  0.837191  0.584767  1
  O  O847  1  0.905434  0.837497  0.584809  1
  O  O848  1  0.904713  0.662777  0.584762  1
  O  O849  1  0.094381  0.662480  0.584806  1
  O  O850  1  0.225625  0.749529  0.584503  1
  O  O851  1  0.774193  0.750447  0.584502  1
  O  O852  1  0.090695  0.948859  0.552852  1
  O  O853  1  0.909270  0.949271  0.552878  1
  O  O854  1  0.909146  0.551114  0.552848  1
  O  O855  1  0.090577  0.550717  0.552873  1
  O  O856  1  0.214713  0.944746  0.536842  1
  O  O857  1  0.785389  0.944854  0.536854  1
  O  O858  1  0.785177  0.555180  0.536835  1
  O  O859  1  0.214526  0.555051  0.536853  1
  O  O860  1  0.094551  0.939701  0.520710  1
  O  O861  1  0.905470  0.939710  0.520716  1
  O  O862  1  0.905411  0.560197  0.520707  1
  O  O863  1  0.094493  0.560192  0.520712  1
  O  O864  1  0.092017  0.846809  0.488591  1
  O  O865  1  0.907952  0.846827  0.488592  1
  O  O866  1  0.907957  0.653111  0.488589  1
  O  O867  1  0.092023  0.653083  0.488590  1
  O  O868  1  0.000000  0.749991  0.574378  1
  O  O869  1  0.000000  0.874929  0.567301  1
  O  O870  1  0.000000  0.625055  0.567296  1
  O  O871  1  0.000000  0.871815  0.506282  1
  O  O872  1  0.000000  0.628084  0.506280  1
  O  O873  1  -0.000000  0.749953  0.497826  1
  O  O874  1  0.499328  0.500143  0.587787  1
  O  O875  1  0.500490  0.000000  0.587792  1
  O  O876  1  0.751835  0.501075  0.578558  1
  O  O877  1  0.749130  0.500430  0.517664  1
  O  O878  1  0.250747  0.500401  0.517678  1
  O  O879  1  0.250829  0.000000  0.517669  1
  O  O880  1  0.749222  0.000000  0.517679  1
  O  O881  1  0.907501  0.455383  0.489360  1
  O  O882  1  0.092460  0.455399  0.489358  1
  O  O883  1  0.092469  0.044534  0.489363  1
  O  O884  1  0.907510  0.044495  0.489362  1
  O  O885  1  0.000000  0.375981  0.502851  1
  O  O886  1  0.000000  0.123916  0.502855  1
  O  O887  1  0.092774  0.338270  0.520454  1
  O  O888  1  0.907199  0.338294  0.520446  1
  O  O889  1  0.907149  0.161640  0.520458  1
  O  O890  1  0.092728  0.161617  0.520448  1
  O  O891  1  -0.000000  0.249949  0.509843  1
  O  O892  1  0.000000  0.249976  0.561844  1
  O  O893  1  0.909770  0.345773  0.552197  1
  O  O894  1  0.089827  0.345721  0.552165  1
  O  O895  1  0.090071  0.154177  0.552198  1
  O  O896  1  0.910012  0.154187  0.552170  1
  O  O897  1  -0.000000  0.373141  0.570059  1
  O  O898  1  -0.000000  0.126833  0.570063  1
  O  O899  1  0.903352  0.057592  0.584031  1
  O  O900  1  0.095944  0.058550  0.584122  1
  O  O901  1  0.096482  0.442407  0.584025  1
  O  O902  1  0.903889  0.441434  0.584116  1
  O  O903  1  0.760889  0.448810  0.475831  1
  O  O904  1  0.239134  0.448772  0.475839  1
  O  O905  1  0.239107  0.051120  0.475836  1
  O  O906  1  0.760856  0.051145  0.475841  1
  O  O907  1  0.745238  0.449374  0.498068  1
  O  O908  1  0.254651  0.449339  0.498081  1
  O  O909  1  0.254714  0.050539  0.498073  1
  O  O910  1  0.745308  0.050568  0.498083  1
  O  O911  1  0.786760  0.345526  0.536579  1
  O  O912  1  0.213210  0.345364  0.536598  1
  O  O913  1  0.213125  0.154420  0.536583  1
  O  O914  1  0.786668  0.154586  0.536601  1
  O  O915  1  0.739688  0.374566  0.515861  1
  O  O916  1  0.260277  0.374552  0.515879  1
  O  O917  1  0.260253  0.125339  0.515866  1
  O  O918  1  0.739655  0.125354  0.515882  1
  O  O919  1  0.779922  0.249978  0.521863  1
  O  O920  1  0.220001  0.249937  0.521863  1
  O  O921  1  0.739476  0.348340  0.558393  1
  O  O922  1  0.259838  0.347786  0.558445  1
  O  O923  1  0.260357  0.151615  0.558397  1
  O  O924  1  0.739996  0.152172  0.558448  1
  O  O925  1  0.812499  0.450081  0.548692  1
  O  O926  1  0.187561  0.449857  0.548714  1
  O  O927  1  0.187363  0.049870  0.548693  1
  O  O928  1  0.812195  0.050080  0.548713  1
  O  O929  1  0.759458  0.449077  0.597997  1
  O  O930  1  0.240184  0.449017  0.598007  1
  O  O931  1  0.240368  0.050901  0.598003  1
  O  O932  1  0.759624  0.050903  0.598006  1
  O  O933  1  0.748056  0.001092  0.578413  1
  O  O934  1  0.251851  0.498912  0.578427  1
  O  O935  1  0.753527  0.374479  0.579650  1
  O  O936  1  0.245172  0.373189  0.579756  1
  O  O937  1  0.246308  0.125503  0.579655  1
  O  O938  1  0.754655  0.126802  0.579762  1
  O  O939  1  0.302075  0.374099  0.458803  1
  O  O940  1  0.697999  0.374113  0.458799  1
  O  O941  1  0.698011  0.125813  0.458802  1
  O  O942  1  0.302079  0.125817  0.458804  1
  O  O943  1  0.589471  0.446926  0.471254  1
  O  O944  1  0.410541  0.446939  0.471254  1
  O  O945  1  0.410535  0.052988  0.471261  1
  O  O946  1  0.589463  0.052994  0.471253  1
  O  O947  1  0.594864  0.448907  0.509532  1
  O  O948  1  0.405031  0.448921  0.509538  1
  O  O949  1  0.405088  0.051008  0.509535  1
  O  O950  1  0.594923  0.050971  0.509542  1
  O  O951  1  0.594389  0.337499  0.572175  1
  O  O952  1  0.404721  0.337193  0.572218  1
  O  O953  1  0.405440  0.162483  0.572177  1
  O  O954  1  0.595109  0.162779  0.572221  1
  O  O955  1  0.725629  0.250447  0.572481  1
  O  O956  1  0.274194  0.249530  0.572482  1
  O  O957  1  0.590566  0.449265  0.604106  1
  O  O958  1  0.409136  0.448867  0.604133  1
  O  O959  1  0.409254  0.050721  0.604112  1
  O  O960  1  0.590687  0.051132  0.604136  1
  O  O961  1  0.499953  0.461472  0.490740  1
  O  O962  1  0.500048  0.038443  0.490743  1
  O  O963  1  0.499917  0.249994  0.582606  1
  O  O964  1  0.499794  0.374929  0.589685  1
  O  O965  1  0.500014  0.125063  0.589688  1
  O  O966  1  0.000000  0.000000  0.569198  1
  O  O967  1  -0.000000  0.499835  0.569193  1
  O  O968  1  0.298946  0.499956  0.457025  1
  Si  Si969  1  0.500087  0.673681  0.334980  1
  Si  Si970  1  0.500046  0.826355  0.334979  1
  Si  Si971  1  0.500039  0.525615  0.409979  1
  Si  Si972  1  0.500026  0.974307  0.409981  1
  Si  Si973  1  0.500008  0.525412  0.436617  1
  Si  Si974  1  0.500028  0.974508  0.436620  1
  Si  Si975  1  0.802167  0.975342  0.426588  1
  Si  Si976  1  0.197875  0.975307  0.426588  1
  Si  Si977  1  0.197883  0.524621  0.426586  1
  Si  Si978  1  0.802168  0.524585  0.426584  1
  Si  Si979  1  0.810074  0.872213  0.365161  1
  Si  Si980  1  0.189929  0.872257  0.365150  1
  Si  Si981  1  0.189981  0.627704  0.365149  1
  Si  Si982  1  0.810051  0.627723  0.365151  1
  Si  Si983  1  0.793014  0.940050  0.328828  1
  Si  Si984  1  0.206532  0.939841  0.328816  1
  Si  Si985  1  0.206607  0.560135  0.328817  1
  Si  Si986  1  0.793066  0.560004  0.328827  1
  Si  Si987  1  0.689248  0.941046  0.448338  1
  Si  Si988  1  0.310808  0.941039  0.448338  1
  Si  Si989  1  0.310794  0.558879  0.448338  1
  Si  Si990  1  0.689231  0.558888  0.448333  1
  Si  Si991  1  0.691459  0.972165  0.306209  1
  Si  Si992  1  0.308764  0.972214  0.306240  1
  Si  Si993  1  0.308805  0.527758  0.306239  1
  Si  Si994  1  0.691435  0.527778  0.306213  1
  Si  Si995  1  0.705204  0.942313  0.403516  1
  Si  Si996  1  0.294856  0.942241  0.403521  1
  Si  Si997  1  0.294870  0.557687  0.403519  1
  Si  Si998  1  0.705217  0.557611  0.403511  1
  Si  Si999  1  0.704625  0.826961  0.343346  1
  Si  Si1000  1  0.295524  0.826933  0.343354  1
  Si  Si1001  1  0.295564  0.673063  0.343354  1
  Si  Si1002  1  0.704707  0.673118  0.343335  1
  Si  Si1003  1  0.800351  0.826684  0.390454  1
  Si  Si1004  1  0.199615  0.826693  0.390443  1
  Si  Si1005  1  0.199625  0.673242  0.390443  1
  Si  Si1006  1  0.800359  0.673236  0.390446  1
  Si  Si1007  1  0.000000  0.945059  0.417594  1
  Si  Si1008  1  0.000000  0.554866  0.417592  1
  Si  Si1009  1  -0.000000  0.561477  0.336603  1
  Si  Si1010  1  -0.000000  0.938499  0.336609  1
  Si  Si1011  1  0.500197  0.558100  0.317376  1
  Si  Si1012  1  0.500196  0.941933  0.317375  1
  Si  Si1013  1  -0.000000  0.827110  0.354851  1
  Si  Si1014  1  0.000000  0.672817  0.354852  1
  Si  Si1015  1  0.000000  0.826382  0.400756  1
  Si  Si1016  1  0.000000  0.673532  0.400752  1
  Si  Si1017  1  0.000000  0.173673  0.336139  1
  Si  Si1018  1  0.000000  0.326344  0.336138  1
  Si  Si1019  1  0.500034  0.128947  0.436893  1
  Si  Si1020  1  0.310033  0.372248  0.305962  1
  Si  Si1021  1  0.689895  0.372255  0.305962  1
  Si  Si1022  1  0.689918  0.127698  0.305972  1
  Si  Si1023  1  0.309982  0.127725  0.305963  1
  Si  Si1024  1  0.293071  0.440020  0.342285  1
  Si  Si1025  1  0.706589  0.439898  0.342296  1
  Si  Si1026  1  0.706538  0.060155  0.342299  1
  Si  Si1027  1  0.293000  0.059954  0.342284  1
  Si  Si1028  1  0.191464  0.472176  0.364901  1
  Si  Si1029  1  0.808775  0.472213  0.364877  1
  Si  Si1030  1  0.808784  0.027712  0.364874  1
  Si  Si1031  1  0.191419  0.027786  0.364901  1
  Si  Si1032  1  0.202689  0.438159  0.390580  1
  Si  Si1033  1  0.797443  0.438146  0.390560  1
  Si  Si1034  1  0.797420  0.061758  0.390557  1
  Si  Si1035  1  0.202670  0.061766  0.390581  1
  Si  Si1036  1  0.196836  0.369390  0.427032  1
  Si  Si1037  1  0.803248  0.369358  0.427027  1
  Si  Si1038  1  0.803238  0.130567  0.427027  1
  Si  Si1039  1  0.196825  0.130536  0.427033  1
  Si  Si1040  1  0.298127  0.326532  0.404609  1
  Si  Si1041  1  0.702033  0.326527  0.404596  1
  Si  Si1042  1  0.702023  0.173377  0.404595  1
  Si  Si1043  1  0.298117  0.173391  0.404610  1
  Si  Si1044  1  0.312624  0.326509  0.448176  1
  Si  Si1045  1  0.687453  0.326509  0.448173  1
  Si  Si1046  1  0.687449  0.173411  0.448175  1
  Si  Si1047  1  0.312617  0.173407  0.448177  1
  Si  Si1048  1  0.204651  0.326917  0.327778  1
  Si  Si1049  1  0.795542  0.326972  0.327756  1
  Si  Si1050  1  0.795468  0.173102  0.327769  1
  Si  Si1051  1  0.204613  0.173077  0.327779  1
  Si  Si1052  1  0.499819  0.061463  0.334509  1
  Si  Si1053  1  0.499874  0.438531  0.334502  1
  Si  Si1054  1  0.000000  0.058066  0.353737  1
  Si  Si1055  1  0.000000  0.441942  0.353737  1
  Si  Si1056  1  0.000000  0.436538  0.400225  1
  Si  Si1057  1  0.000000  0.063379  0.400225  1
  Si  Si1058  1  0.000000  0.327085  0.418822  1
  Si  Si1059  1  0.000000  0.172832  0.418822  1
  Si  Si1060  1  0.499934  0.327119  0.316264  1
  Si  Si1061  1  0.499905  0.172823  0.316264  1
  Si  Si1062  1  0.500091  0.371161  0.410363  1
  Si  Si1063  1  0.500079  0.128761  0.410364  1
  Si  Si1064  1  0.500037  0.370974  0.436891  1
  Si  Si1065  1  -0.000000  0.525639  0.167046  1
  Si  Si1066  1  0.000000  0.974327  0.167048  1
  Si  Si1067  1  0.000000  0.525439  0.193684  1
  Si  Si1068  1  0.000000  0.974538  0.193686  1
  Si  Si1069  1  -0.000000  0.628966  0.234223  1
  Si  Si1070  1  0.302065  0.975330  0.183653  1
  Si  Si1071  1  0.697773  0.975356  0.183655  1
  Si  Si1072  1  0.697807  0.524634  0.183648  1
  Si  Si1073  1  0.302092  0.524617  0.183656  1
  Si  Si1074  1  0.189160  0.941062  0.205406  1
  Si  Si1075  1  0.810728  0.941074  0.205403  1
  Si  Si1076  1  0.810720  0.558913  0.205400  1
  Si  Si1077  1  0.189159  0.558905  0.205405  1
  Si  Si1078  1  0.702567  0.938171  0.280528  1
  Si  Si1079  1  0.297321  0.938180  0.280557  1
  Si  Si1080  1  0.297331  0.561787  0.280555  1
  Si  Si1081  1  0.702581  0.561773  0.280532  1
  Si  Si1082  1  0.696685  0.869419  0.244079  1
  Si  Si1083  1  0.303100  0.869389  0.244091  1
  Si  Si1084  1  0.303112  0.630583  0.244090  1
  Si  Si1085  1  0.696702  0.630549  0.244079  1
  Si  Si1086  1  0.797988  0.826540  0.266499  1
  Si  Si1087  1  0.201890  0.826563  0.266522  1
  Si  Si1088  1  0.201907  0.673412  0.266521  1
  Si  Si1089  1  0.798002  0.673400  0.266502  1
  Si  Si1090  1  0.812501  0.826539  0.222938  1
  Si  Si1091  1  0.187322  0.826533  0.222942  1
  Si  Si1092  1  0.187336  0.673433  0.222942  1
  Si  Si1093  1  0.812509  0.673436  0.222937  1
  Si  Si1094  1  0.205131  0.942284  0.160581  1
  Si  Si1095  1  0.794783  0.942292  0.160591  1
  Si  Si1096  1  0.794742  0.557674  0.160575  1
  Si  Si1097  1  0.205091  0.557665  0.160590  1
  Si  Si1098  1  0.300274  0.826682  0.147508  1
  Si  Si1099  1  0.699534  0.826728  0.147521  1
  Si  Si1100  1  0.699576  0.673278  0.147504  1
  Si  Si1101  1  0.300318  0.673232  0.147518  1
  Si  Si1102  1  0.499923  0.945073  0.174661  1
  Si  Si1103  1  0.499937  0.554883  0.174659  1
  Si  Si1104  1  0.499902  0.936557  0.270888  1
  Si  Si1105  1  0.499923  0.563399  0.270889  1
  Si  Si1106  1  0.499913  0.827105  0.252291  1
  Si  Si1107  1  0.499928  0.672851  0.252292  1
  Si  Si1108  1  0.499883  0.826403  0.157822  1
  Si  Si1109  1  0.499967  0.673553  0.157820  1
  Si  Si1110  1  -0.000000  0.871196  0.260752  1
  Si  Si1111  1  -0.000000  0.628776  0.260751  1
  Si  Si1112  1  0.000000  0.871010  0.234223  1
  Si  Si1113  1  0.000000  0.025649  0.261137  1
  Si  Si1114  1  0.000000  0.474322  0.261134  1
  Si  Si1115  1  -0.000000  0.025448  0.234498  1
  Si  Si1116  1  0.000000  0.474527  0.234496  1
  Si  Si1117  1  0.000000  0.128976  0.193959  1
  Si  Si1118  1  0.302040  0.475358  0.244532  1
  Si  Si1119  1  0.697748  0.475318  0.244524  1
  Si  Si1120  1  0.697759  0.024651  0.244528  1
  Si  Si1121  1  0.302046  0.024616  0.244533  1
  Si  Si1122  1  0.189126  0.441061  0.222781  1
  Si  Si1123  1  0.810686  0.441065  0.222774  1
  Si  Si1124  1  0.810712  0.058917  0.222780  1
  Si  Si1125  1  0.189150  0.058910  0.222780  1
  Si  Si1126  1  0.702521  0.438198  0.147627  1
  Si  Si1127  1  0.297274  0.438155  0.147645  1
  Si  Si1128  1  0.297341  0.061763  0.147632  1
  Si  Si1129  1  0.702591  0.061794  0.147645  1
  Si  Si1130  1  0.696738  0.369408  0.184091  1
  Si  Si1131  1  0.303151  0.369387  0.184100  1
  Si  Si1132  1  0.303131  0.130556  0.184096  1
  Si  Si1133  1  0.696718  0.130587  0.184098  1
  Si  Si1134  1  0.797961  0.326583  0.161660  1
  Si  Si1135  1  0.201865  0.326526  0.161677  1
  Si  Si1136  1  0.201906  0.173380  0.161666  1
  Si  Si1137  1  0.798000  0.173438  0.161673  1
  Si  Si1138  1  0.812517  0.326537  0.205238  1
  Si  Si1139  1  0.187348  0.326533  0.205244  1
  Si  Si1140  1  0.187353  0.173434  0.205243  1
  Si  Si1141  1  0.812521  0.173438  0.205242  1
  Si  Si1142  1  0.205092  0.442325  0.267604  1
  Si  Si1143  1  0.794745  0.442251  0.267590  1
  Si  Si1144  1  0.794745  0.057717  0.267594  1
  Si  Si1145  1  0.205096  0.057646  0.267605  1
  Si  Si1146  1  0.300256  0.326712  0.280669  1
  Si  Si1147  1  0.699517  0.326703  0.280668  1
  Si  Si1148  1  0.699509  0.173252  0.280678  1
  Si  Si1149  1  0.300250  0.173263  0.280670  1
  Si  Si1150  1  0.499900  0.445072  0.253522  1
  Si  Si1151  1  0.499903  0.054896  0.253523  1
  Si  Si1152  1  0.499924  0.436560  0.157291  1
  Si  Si1153  1  0.499944  0.063396  0.157293  1
  Si  Si1154  1  0.499936  0.327109  0.175888  1
  Si  Si1155  1  0.499921  0.172855  0.175889  1
  Si  Si1156  1  0.499887  0.326402  0.270361  1
  Si  Si1157  1  0.499895  0.173552  0.270365  1
  Si  Si1158  1  0.000000  0.371186  0.167429  1
  Si  Si1159  1  -0.000000  0.128781  0.167430  1
  Si  Si1160  1  0.000000  0.371001  0.193958  1
  Si  Si1161  1  0.000000  0.826326  0.092048  1
  Si  Si1162  1  -0.000000  0.673652  0.092045  1
  Si  Si1163  1  0.309971  0.872137  0.122210  1
  Si  Si1164  1  0.689852  0.872349  0.122232  1
  Si  Si1165  1  0.689846  0.627834  0.122206  1
  Si  Si1166  1  0.309947  0.627603  0.122229  1
  Si  Si1167  1  0.292983  0.939727  0.085896  1
  Si  Si1168  1  0.706513  0.940140  0.085888  1
  Si  Si1169  1  0.706846  0.560251  0.085891  1
  Si  Si1170  1  0.293311  0.559833  0.085886  1
  Si  Si1171  1  0.191300  0.972081  0.063288  1
  Si  Si1172  1  0.808635  0.972289  0.063300  1
  Si  Si1173  1  0.808549  0.527872  0.063285  1
  Si  Si1174  1  0.191199  0.527646  0.063298  1
  Si  Si1175  1  0.204791  0.826518  0.100392  1
  Si  Si1176  1  0.795664  0.827309  0.100439  1
  Si  Si1177  1  0.795024  0.673455  0.100387  1
  Si  Si1178  1  0.204153  0.672664  0.100436  1
  Si  Si1179  1  0.500043  0.561464  0.093672  1
  Si  Si1180  1  0.499789  0.938521  0.093679  1
  Si  Si1181  1  0.000000  0.558067  0.074442  1
  Si  Si1182  1  -0.000000  0.941918  0.074447  1
  Si  Si1183  1  0.499958  0.827127  0.111919  1
  Si  Si1184  1  0.499845  0.672833  0.111917  1
  Si  Si1185  1  0.500151  0.173655  0.093203  1
  Si  Si1186  1  0.499677  0.326329  0.093200  1
  Si  Si1187  1  0.809969  0.372355  0.063017  1
  Si  Si1188  1  0.189854  0.372127  0.063038  1
  Si  Si1189  1  0.189879  0.127596  0.063020  1
  Si  Si1190  1  0.809973  0.127810  0.063042  1
  Si  Si1191  1  0.793317  0.440143  0.099359  1
  Si  Si1192  1  0.206845  0.439725  0.099354  1
  Si  Si1193  1  0.206516  0.059839  0.099364  1
  Si  Si1194  1  0.792982  0.060250  0.099355  1
  Si  Si1195  1  0.691194  0.472316  0.121946  1
  Si  Si1196  1  0.308530  0.472086  0.121961  1
  Si  Si1197  1  0.308630  0.027657  0.121952  1
  Si  Si1198  1  0.691279  0.027864  0.121961  1
  Si  Si1199  1  0.704159  0.327310  0.084810  1
  Si  Si1200  1  0.295031  0.326519  0.084858  1
  Si  Si1201  1  0.295668  0.172665  0.084812  1
  Si  Si1202  1  0.704798  0.173455  0.084860  1
  Si  Si1203  1  0.000000  0.061471  0.091576  1
  Si  Si1204  1  0.000000  0.438510  0.091570  1
  Si  Si1205  1  0.499994  0.058077  0.110807  1
  Si  Si1206  1  0.499819  0.441916  0.110803  1
  Si  Si1207  1  -0.000000  0.327123  0.073329  1
  Si  Si1208  1  0.000000  0.172827  0.073330  1
  Si  Si1209  1  0.500087  0.673681  0.820847  1
  Si  Si1210  1  0.500046  0.826355  0.820847  1
  Si  Si1211  1  0.810074  0.872213  0.851029  1
  Si  Si1212  1  0.189929  0.872257  0.851018  1
  Si  Si1213  1  0.189981  0.627704  0.851016  1
  Si  Si1214  1  0.810051  0.627723  0.851019  1
  Si  Si1215  1  0.793014  0.940050  0.814696  1
  Si  Si1216  1  0.206532  0.939841  0.814684  1
  Si  Si1217  1  0.206607  0.560135  0.814685  1
  Si  Si1218  1  0.793066  0.560004  0.814695  1
  Si  Si1219  1  0.691459  0.972165  0.792077  1
  Si  Si1220  1  0.308764  0.972214  0.792108  1
  Si  Si1221  1  0.308805  0.527758  0.792106  1
  Si  Si1222  1  0.691435  0.527778  0.792081  1
  Si  Si1223  1  0.704625  0.826961  0.829214  1
  Si  Si1224  1  0.295524  0.826933  0.829222  1
  Si  Si1225  1  0.295564  0.673063  0.829222  1
  Si  Si1226  1  0.704707  0.673118  0.829202  1
  Si  Si1227  1  0.000000  0.561477  0.822471  1
  Si  Si1228  1  0.000000  0.938499  0.822477  1
  Si  Si1229  1  0.500197  0.558100  0.803244  1
  Si  Si1230  1  0.500196  0.941933  0.803243  1
  Si  Si1231  1  -0.000000  0.827110  0.840719  1
  Si  Si1232  1  0.000000  0.672817  0.840719  1
  Si  Si1233  1  0.000000  0.173673  0.822007  1
  Si  Si1234  1  0.000000  0.326344  0.822006  1
  Si  Si1235  1  0.310033  0.372248  0.791830  1
  Si  Si1236  1  0.689895  0.372255  0.791830  1
  Si  Si1237  1  0.689918  0.127698  0.791840  1
  Si  Si1238  1  0.309982  0.127725  0.791831  1
  Si  Si1239  1  0.293071  0.440020  0.828153  1
  Si  Si1240  1  0.706589  0.439898  0.828164  1
  Si  Si1241  1  0.706538  0.060155  0.828167  1
  Si  Si1242  1  0.293000  0.059954  0.828152  1
  Si  Si1243  1  0.191464  0.472176  0.850769  1
  Si  Si1244  1  0.808775  0.472213  0.850745  1
  Si  Si1245  1  0.808784  0.027712  0.850742  1
  Si  Si1246  1  0.191419  0.027786  0.850769  1
  Si  Si1247  1  0.204651  0.326917  0.813646  1
  Si  Si1248  1  0.795542  0.326972  0.813624  1
  Si  Si1249  1  0.795468  0.173102  0.813637  1
  Si  Si1250  1  0.204613  0.173077  0.813647  1
  Si  Si1251  1  0.499819  0.061463  0.820377  1
  Si  Si1252  1  0.499874  0.438531  0.820370  1
  Si  Si1253  1  -0.000000  0.058066  0.839605  1
  Si  Si1254  1  -0.000000  0.441942  0.839605  1
  Si  Si1255  1  0.499934  0.327119  0.802132  1
  Si  Si1256  1  0.499905  0.172823  0.802132  1
  Si  Si1257  1  -0.000000  0.525639  0.652914  1
  Si  Si1258  1  0.000000  0.974327  0.652915  1
  Si  Si1259  1  -0.000000  0.525439  0.679552  1
  Si  Si1260  1  0.000000  0.974538  0.679554  1
  Si  Si1261  1  0.000000  0.628966  0.720091  1
  Si  Si1262  1  0.302065  0.975330  0.669521  1
  Si  Si1263  1  0.697773  0.975356  0.669523  1
  Si  Si1264  1  0.697807  0.524634  0.669516  1
  Si  Si1265  1  0.302092  0.524617  0.669524  1
  Si  Si1266  1  0.189160  0.941062  0.691274  1
  Si  Si1267  1  0.810728  0.941074  0.691271  1
  Si  Si1268  1  0.810720  0.558913  0.691267  1
  Si  Si1269  1  0.189159  0.558905  0.691273  1
  Si  Si1270  1  0.702567  0.938171  0.766396  1
  Si  Si1271  1  0.297321  0.938180  0.766424  1
  Si  Si1272  1  0.297331  0.561787  0.766423  1
  Si  Si1273  1  0.702581  0.561773  0.766400  1
  Si  Si1274  1  0.696685  0.869419  0.729946  1
  Si  Si1275  1  0.303100  0.869389  0.729959  1
  Si  Si1276  1  0.303112  0.630583  0.729958  1
  Si  Si1277  1  0.696702  0.630549  0.729947  1
  Si  Si1278  1  0.797988  0.826540  0.752367  1
  Si  Si1279  1  0.201890  0.826563  0.752390  1
  Si  Si1280  1  0.201907  0.673412  0.752389  1
  Si  Si1281  1  0.798002  0.673400  0.752370  1
  Si  Si1282  1  0.812501  0.826539  0.708806  1
  Si  Si1283  1  0.187322  0.826533  0.708810  1
  Si  Si1284  1  0.187336  0.673433  0.708810  1
  Si  Si1285  1  0.812509  0.673436  0.708805  1
  Si  Si1286  1  0.205131  0.942284  0.646449  1
  Si  Si1287  1  0.794783  0.942292  0.646459  1
  Si  Si1288  1  0.794742  0.557674  0.646443  1
  Si  Si1289  1  0.205091  0.557665  0.646458  1
  Si  Si1290  1  0.300274  0.826682  0.633376  1
  Si  Si1291  1  0.699534  0.826728  0.633388  1
  Si  Si1292  1  0.699576  0.673278  0.633372  1
  Si  Si1293  1  0.300318  0.673232  0.633386  1
  Si  Si1294  1  0.499923  0.945073  0.660529  1
  Si  Si1295  1  0.499937  0.554883  0.660527  1
  Si  Si1296  1  0.499902  0.936557  0.756756  1
  Si  Si1297  1  0.499923  0.563399  0.756757  1
  Si  Si1298  1  0.499913  0.827105  0.738159  1
  Si  Si1299  1  0.499928  0.672851  0.738160  1
  Si  Si1300  1  0.499883  0.826403  0.643690  1
  Si  Si1301  1  0.499967  0.673553  0.643688  1
  Si  Si1302  1  -0.000000  0.871196  0.746620  1
  Si  Si1303  1  0.000000  0.628776  0.746619  1
  Si  Si1304  1  -0.000000  0.871010  0.720091  1
  Si  Si1305  1  0.000000  0.025649  0.747005  1
  Si  Si1306  1  0.000000  0.474322  0.747002  1
  Si  Si1307  1  -0.000000  0.025448  0.720366  1
  Si  Si1308  1  0.000000  0.474527  0.720364  1
  Si  Si1309  1  -0.000000  0.128976  0.679827  1
  Si  Si1310  1  0.302040  0.475358  0.730400  1
  Si  Si1311  1  0.697748  0.475318  0.730392  1
  Si  Si1312  1  0.697759  0.024651  0.730396  1
  Si  Si1313  1  0.302046  0.024616  0.730401  1
  Si  Si1314  1  0.189126  0.441061  0.708649  1
  Si  Si1315  1  0.810686  0.441065  0.708642  1
  Si  Si1316  1  0.810712  0.058917  0.708647  1
  Si  Si1317  1  0.189150  0.058910  0.708648  1
  Si  Si1318  1  0.702521  0.438198  0.633495  1
  Si  Si1319  1  0.297274  0.438155  0.633513  1
  Si  Si1320  1  0.297341  0.061763  0.633500  1
  Si  Si1321  1  0.702591  0.061794  0.633513  1
  Si  Si1322  1  0.696738  0.369408  0.669959  1
  Si  Si1323  1  0.303151  0.369387  0.669968  1
  Si  Si1324  1  0.303131  0.130556  0.669964  1
  Si  Si1325  1  0.696718  0.130587  0.669966  1
  Si  Si1326  1  0.797961  0.326583  0.647528  1
  Si  Si1327  1  0.201865  0.326526  0.647545  1
  Si  Si1328  1  0.201906  0.173380  0.647534  1
  Si  Si1329  1  0.798000  0.173438  0.647541  1
  Si  Si1330  1  0.812517  0.326537  0.691106  1
  Si  Si1331  1  0.187348  0.326533  0.691112  1
  Si  Si1332  1  0.187353  0.173434  0.691111  1
  Si  Si1333  1  0.812521  0.173438  0.691110  1
  Si  Si1334  1  0.205092  0.442325  0.753472  1
  Si  Si1335  1  0.794745  0.442251  0.753458  1
  Si  Si1336  1  0.794745  0.057717  0.753462  1
  Si  Si1337  1  0.205096  0.057646  0.753473  1
  Si  Si1338  1  0.300256  0.326712  0.766537  1
  Si  Si1339  1  0.699517  0.326703  0.766536  1
  Si  Si1340  1  0.699509  0.173252  0.766546  1
  Si  Si1341  1  0.300250  0.173263  0.766538  1
  Si  Si1342  1  0.499900  0.445072  0.739390  1
  Si  Si1343  1  0.499903  0.054896  0.739391  1
  Si  Si1344  1  0.499924  0.436560  0.643159  1
  Si  Si1345  1  0.499944  0.063396  0.643161  1
  Si  Si1346  1  0.499936  0.327109  0.661756  1
  Si  Si1347  1  0.499921  0.172855  0.661757  1
  Si  Si1348  1  0.499887  0.326402  0.756228  1
  Si  Si1349  1  0.499895  0.173552  0.756233  1
  Si  Si1350  1  -0.000000  0.371186  0.653297  1
  Si  Si1351  1  0.000000  0.128781  0.653298  1
  Si  Si1352  1  -0.000000  0.371001  0.679826  1
  Si  Si1353  1  0.000000  0.826326  0.577916  1
  Si  Si1354  1  0.499999  0.628944  0.477155  1
  Si  Si1355  1  -0.000000  0.673652  0.577913  1
  Si  Si1356  1  0.309971  0.872137  0.608078  1
  Si  Si1357  1  0.689852  0.872349  0.608100  1
  Si  Si1358  1  0.689846  0.627834  0.608074  1
  Si  Si1359  1  0.309947  0.627603  0.608097  1
  Si  Si1360  1  0.292983  0.939727  0.571764  1
  Si  Si1361  1  0.706513  0.940140  0.571756  1
  Si  Si1362  1  0.706846  0.560251  0.571759  1
  Si  Si1363  1  0.293311  0.559833  0.571754  1
  Si  Si1364  1  0.191300  0.972081  0.549156  1
  Si  Si1365  1  0.808635  0.972289  0.549168  1
  Si  Si1366  1  0.808549  0.527872  0.549153  1
  Si  Si1367  1  0.191199  0.527646  0.549166  1
  Si  Si1368  1  0.202640  0.938130  0.523473  1
  Si  Si1369  1  0.797395  0.938164  0.523487  1
  Si  Si1370  1  0.797317  0.561778  0.523468  1
  Si  Si1371  1  0.202564  0.561740  0.523485  1
  Si  Si1372  1  0.196776  0.869366  0.487017  1
  Si  Si1373  1  0.803189  0.869383  0.487022  1
  Si  Si1374  1  0.803199  0.630557  0.487014  1
  Si  Si1375  1  0.196786  0.630525  0.487020  1
  Si  Si1376  1  0.298050  0.826501  0.509441  1
  Si  Si1377  1  0.701955  0.826557  0.509451  1
  Si  Si1378  1  0.701907  0.673412  0.509437  1
  Si  Si1379  1  0.298001  0.673354  0.509451  1
  Si  Si1380  1  0.312587  0.826507  0.465874  1
  Si  Si1381  1  0.687417  0.826513  0.465874  1
  Si  Si1382  1  0.687407  0.673413  0.465869  1
  Si  Si1383  1  0.312578  0.673406  0.465875  1
  Si  Si1384  1  0.204791  0.826518  0.586260  1
  Si  Si1385  1  0.795664  0.827309  0.586307  1
  Si  Si1386  1  0.795024  0.673455  0.586255  1
  Si  Si1387  1  0.204153  0.672664  0.586303  1
  Si  Si1388  1  0.500043  0.561464  0.579540  1
  Si  Si1389  1  0.499789  0.938521  0.579547  1
  Si  Si1390  1  0.000000  0.558067  0.560310  1
  Si  Si1391  1  -0.000000  0.941918  0.560315  1
  Si  Si1392  1  0.000000  0.936527  0.513825  1
  Si  Si1393  1  0.000000  0.563371  0.513821  1
  Si  Si1394  1  0.000000  0.827081  0.495226  1
  Si  Si1395  1  0.000000  0.672827  0.495225  1
  Si  Si1396  1  0.499958  0.827127  0.597786  1
  Si  Si1397  1  0.499845  0.672833  0.597785  1
  Si  Si1398  1  0.500001  0.871158  0.503686  1
  Si  Si1399  1  0.499953  0.628752  0.503684  1
  Si  Si1400  1  0.500003  0.870976  0.477157  1
  Si  Si1401  1  0.500151  0.173655  0.579071  1
  Si  Si1402  1  0.499677  0.326329  0.579068  1
  Si  Si1403  1  0.500010  0.025610  0.504070  1
  Si  Si1404  1  0.499942  0.474298  0.504067  1
  Si  Si1405  1  0.500016  0.025415  0.477432  1
  Si  Si1406  1  0.500006  0.474506  0.477429  1
  Si  Si1407  1  0.000000  0.173526  0.513297  1
  Si  Si1408  1  0.802141  0.475326  0.487459  1
  Si  Si1409  1  0.197848  0.475299  0.487464  1
  Si  Si1410  1  0.197833  0.024596  0.487462  1
  Si  Si1411  1  0.802120  0.024608  0.487467  1
  Si  Si1412  1  0.809969  0.372355  0.548885  1
  Si  Si1413  1  0.189854  0.372127  0.548906  1
  Si  Si1414  1  0.189879  0.127596  0.548888  1
  Si  Si1415  1  0.809973  0.127810  0.548910  1
  Si  Si1416  1  0.793317  0.440143  0.585227  1
  Si  Si1417  1  0.206845  0.439725  0.585222  1
  Si  Si1418  1  0.206516  0.059839  0.585232  1
  Si  Si1419  1  0.792982  0.060250  0.585223  1
  Si  Si1420  1  0.689222  0.441045  0.465709  1
  Si  Si1421  1  0.310781  0.441034  0.465713  1
  Si  Si1422  1  0.310794  0.058881  0.465714  1
  Si  Si1423  1  0.689233  0.058889  0.465713  1
  Si  Si1424  1  0.691194  0.472316  0.607814  1
  Si  Si1425  1  0.308530  0.472086  0.607829  1
  Si  Si1426  1  0.308630  0.027657  0.607820  1
  Si  Si1427  1  0.691279  0.027864  0.607829  1
  Si  Si1428  1  0.705125  0.442270  0.510524  1
  Si  Si1429  1  0.294777  0.442259  0.510537  1
  Si  Si1430  1  0.294826  0.057639  0.510529  1
  Si  Si1431  1  0.705176  0.057643  0.510539  1
  Si  Si1432  1  0.704159  0.327310  0.570677  1
  Si  Si1433  1  0.295031  0.326519  0.570726  1
  Si  Si1434  1  0.295668  0.172665  0.570680  1
  Si  Si1435  1  0.704798  0.173455  0.570728  1
  Si  Si1436  1  0.800350  0.326706  0.523596  1
  Si  Si1437  1  0.199611  0.326660  0.523609  1
  Si  Si1438  1  0.199574  0.173210  0.523598  1
  Si  Si1439  1  0.800308  0.173256  0.523611  1
  Si  Si1440  1  -0.000000  0.445042  0.496455  1
  Si  Si1441  1  0.000000  0.054858  0.496458  1
  Si  Si1442  1  0.000000  0.061471  0.577444  1
  Si  Si1443  1  0.000000  0.438510  0.577438  1
  Si  Si1444  1  0.499994  0.058077  0.596675  1
  Si  Si1445  1  0.499819  0.441916  0.596671  1
  Si  Si1446  1  -0.000000  0.327123  0.559197  1
  Si  Si1447  1  0.000000  0.172827  0.559198  1
  Si  Si1448  1  -0.000000  0.326376  0.513295  1
  H  H1449  1  0.214713  0.944746  0.043238  1
  H  H1450  1  0.785389  0.944854  0.043251  1
  H  H1451  1  0.785177  0.555180  0.043232  1
  H  H1452  1  0.214526  0.555051  0.043249  1
  H  H1453  1  0.786760  0.345526  0.042975  1
  H  H1454  1  0.213210  0.345364  0.042994  1
  H  H1455  1  0.213125  0.154420  0.042979  1
  H  H1456  1  0.786668  0.154586  0.042998  1
  H  H1457  1  0.786715  0.845482  0.871074  1
  H  H1458  1  0.213151  0.845428  0.871059  1
  H  H1459  1  0.213179  0.654537  0.871058  1
  H  H1460  1  0.786719  0.654502  0.871062  1
  H  H1461  1  0.214825  0.444821  0.870818  1
  H  H1462  1  0.785492  0.444788  0.870794  1
  H  H1463  1  0.785441  0.055106  0.870791  1
  H  H1464  1  0.214811  0.055109  0.870820  1
