# generated using pymatgen
data_Si70H2O141
_symmetry_space_group_name_H-M   'P 1'
_cell_length_a   12.80769475
_cell_length_b   12.63554297
_cell_length_c   126.83780776
_cell_angle_alpha   90.00000000
_cell_angle_beta   90.00000000
_cell_angle_gamma   90.00000000
_symmetry_Int_Tables_number   1
_chemical_formula_structural   Si70H2O141
_chemical_formula_sum   'Si280 H8 O564'
_cell_volume   20526.4386007
_cell_formula_units_Z   4
loop_
 _symmetry_equiv_pos_site_id
 _symmetry_equiv_pos_as_xyz
  1  'x, y, z'
loop_
 _atom_site_type_symbol
 _atom_site_label
 _atom_site_symmetry_multiplicity
 _atom_site_fract_x
 _atom_site_fract_y
 _atom_site_fract_z
 _atom_site_occupancy
  O  O1  1  0.658608  0.142426  0.075494  1
  O  O2  1  0.658598  0.857669  0.075494  1
  O  O3  1  0.780496  0.000000  0.068406  1
  O  O4  1  0.811998  0.202824  0.062733  1
  O  O5  1  0.811986  0.797262  0.062734  1
  O  O6  1  0.790987  0.399315  0.064778  1
  O  O7  1  0.790991  0.600767  0.064777  1
  O  O8  1  0.354219  0.329294  0.070904  1
  O  O9  1  0.354217  0.670813  0.070904  1
  O  O10  1  0.835261  0.329889  0.046516  1
  O  O11  1  0.335265  0.329899  0.050429  1
  O  O12  1  0.335258  0.670232  0.050429  1
  O  O13  1  0.835272  0.670222  0.046516  1
  O  O14  1  0.971612  0.331749  0.061488  1
  O  O15  1  0.971613  0.668352  0.061489  1
  O  O16  1  0.316497  0.500058  0.061102  1
  O  O17  1  0.176462  0.361093  0.062587  1
  O  O18  1  0.176459  0.639014  0.062588  1
  O  O19  1  0.054055  0.500047  0.069053  1
  O  O20  1  0.654352  0.500051  0.075939  1
  O  O21  1  0.799626  0.142382  0.100399  1
  O  O22  1  0.799617  0.857700  0.100399  1
  O  O23  1  0.921772  -0.000000  0.093309  1
  O  O24  1  0.844399  0.137843  0.081249  1
  O  O25  1  0.844390  0.862238  0.081250  1
  O  O26  1  0.987351  0.201859  0.093430  1
  O  O27  1  0.987338  0.798214  0.093431  1
  O  O28  1  0.676855  0.000000  0.107268  1
  O  O29  1  0.611736  0.140563  0.094724  1
  O  O30  1  0.611726  0.859532  0.094725  1
  O  O31  1  0.651206  0.199441  0.113712  1
  O  O32  1  0.651197  0.800644  0.113713  1
  O  O33  1  0.537693  0.000000  0.082626  1
  O  O34  1  0.471435  0.200805  0.081741  1
  O  O35  1  0.471422  0.799299  0.081742  1
  O  O36  1  0.800423  0.500030  0.100653  1
  O  O37  1  0.841972  0.500041  0.081392  1
  O  O38  1  0.962154  0.399455  0.093857  1
  O  O39  1  0.962152  0.600614  0.093858  1
  O  O40  1  0.609658  0.500046  0.095564  1
  O  O41  1  0.669442  0.398390  0.111857  1
  O  O42  1  0.669454  0.601694  0.111857  1
  O  O43  1  0.496666  0.398577  0.082624  1
  O  O44  1  0.496667  0.601527  0.082625  1
  O  O45  1  0.335673  0.325788  0.090957  1
  O  O46  1  0.335663  0.674301  0.090957  1
  O  O47  1  0.067635  0.326937  0.079227  1
  O  O48  1  0.067633  0.673145  0.079228  1
  O  O49  1  0.147639  0.332528  0.097534  1
  O  O50  1  0.147633  0.667550  0.097535  1
  O  O51  1  0.495686  0.329314  0.117084  1
  O  O52  1  0.495690  0.670753  0.117084  1
  O  O53  1  0.641674  0.329245  0.130558  1
  O  O54  1  0.641674  0.670825  0.130558  1
  O  O55  1  0.259214  0.500041  0.097151  1
  O  O56  1  0.306620  0.359912  0.110695  1
  O  O57  1  0.306622  0.640163  0.110696  1
  O  O58  1  0.400604  0.500033  0.121275  1
  O  O59  1  0.200265  0.142373  0.161390  1
  O  O60  1  0.200271  0.857692  0.161389  1
  O  O61  1  0.078119  0.000000  0.168480  1
  O  O62  1  0.155496  0.137831  0.180539  1
  O  O63  1  0.155503  0.862226  0.180538  1
  O  O64  1  0.012544  0.201851  0.168358  1
  O  O65  1  0.012551  0.798207  0.168357  1
  O  O66  1  0.323034  -0.000000  0.154520  1
  O  O67  1  0.388157  0.140553  0.167064  1
  O  O68  1  0.388165  0.859522  0.167063  1
  O  O69  1  0.348683  0.199433  0.148076  1
  O  O70  1  0.348689  0.800637  0.148075  1
  O  O71  1  0.462201  -0.000000  0.179162  1
  O  O72  1  0.528461  0.200792  0.180047  1
  O  O73  1  0.528472  0.799287  0.180046  1
  O  O74  1  0.199471  0.500028  0.161135  1
  O  O75  1  0.157922  0.500032  0.180396  1
  O  O76  1  0.037740  0.399448  0.167931  1
  O  O77  1  0.037741  0.600608  0.167930  1
  O  O78  1  0.390237  0.500041  0.166224  1
  O  O79  1  0.330446  0.398382  0.149931  1
  O  O80  1  0.330440  0.601685  0.149931  1
  O  O81  1  0.503230  0.398564  0.179164  1
  O  O82  1  0.503230  0.601514  0.179164  1
  O  O83  1  0.664225  0.325777  0.170831  1
  O  O84  1  0.664229  0.674288  0.170831  1
  O  O85  1  0.932262  0.326929  0.182561  1
  O  O86  1  0.932263  0.673135  0.182560  1
  O  O87  1  0.852256  0.332519  0.164254  1
  O  O88  1  0.852260  0.667541  0.164254  1
  O  O89  1  0.504201  0.329311  0.144704  1
  O  O90  1  0.504201  0.670751  0.144704  1
  O  O91  1  0.358212  0.329246  0.131231  1
  O  O92  1  0.358217  0.670824  0.131231  1
  O  O93  1  0.740680  0.500030  0.164636  1
  O  O94  1  0.693270  0.359905  0.151093  1
  O  O95  1  0.693271  0.640157  0.151092  1
  O  O96  1  0.599285  0.500031  0.140513  1
  O  O97  1  0.841295  0.142442  0.240337  1
  O  O98  1  0.341289  0.142412  0.186294  1
  O  O99  1  0.341298  0.857655  0.186293  1
  O  O100  1  0.841296  0.857686  0.240337  1
  O  O101  1  0.719403  -0.000000  0.233249  1
  O  O102  1  0.219402  -0.000000  0.193382  1
  O  O103  1  0.687911  0.202843  0.227576  1
  O  O104  1  0.187901  0.202808  0.199055  1
  O  O105  1  0.187915  0.797248  0.199054  1
  O  O106  1  0.687908  0.797281  0.227576  1
  O  O107  1  0.708916  0.399338  0.229620  1
  O  O108  1  0.208909  0.399298  0.197010  1
  O  O109  1  0.208909  0.600751  0.197012  1
  O  O110  1  0.708913  0.600789  0.229620  1
  O  O111  1  0.145688  0.329291  0.235747  1
  O  O112  1  0.645676  0.329280  0.190884  1
  O  O113  1  0.645683  0.670807  0.190884  1
  O  O114  1  0.145681  0.670815  0.235747  1
  O  O115  1  0.664644  0.329887  0.211359  1
  O  O116  1  0.164650  0.329876  0.215272  1
  O  O117  1  0.164642  0.670208  0.215272  1
  O  O118  1  0.664650  0.670219  0.211359  1
  O  O119  1  0.528292  0.331760  0.226331  1
  O  O120  1  0.028285  0.331734  0.200301  1
  O  O121  1  0.028289  0.668338  0.200300  1
  O  O122  1  0.528289  0.668359  0.226330  1
  O  O123  1  0.183406  0.500048  0.225945  1
  O  O124  1  0.683401  0.500046  0.200686  1
  O  O125  1  0.323446  0.361094  0.227431  1
  O  O126  1  0.823435  0.361082  0.199200  1
  O  O127  1  0.823440  0.639000  0.199200  1
  O  O128  1  0.323441  0.639015  0.227431  1
  O  O129  1  0.445850  0.500059  0.233895  1
  O  O130  1  0.945847  0.500035  0.192736  1
  O  O131  1  0.345545  0.500035  0.185849  1
  O  O132  1  0.845549  0.500066  0.240782  1
  O  O133  1  0.700275  0.142408  0.265242  1
  O  O134  1  0.700279  0.857725  0.265242  1
  O  O135  1  0.578127  -0.000000  0.258152  1
  O  O136  1  0.655503  0.137865  0.246093  1
  O  O137  1  0.655505  0.862261  0.246092  1
  O  O138  1  0.512554  0.201886  0.258274  1
  O  O139  1  0.512557  0.798241  0.258273  1
  O  O140  1  0.823044  -0.000000  0.272111  1
  O  O141  1  0.888166  0.140584  0.259568  1
  O  O142  1  0.888169  0.859552  0.259567  1
  O  O143  1  0.848697  0.199466  0.278556  1
  O  O144  1  0.848699  0.800673  0.278555  1
  O  O145  1  0.962204  -0.000000  0.247469  1
  O  O146  1  0.028469  0.200818  0.246585  1
  O  O147  1  0.028471  0.799315  0.246583  1
  O  O148  1  0.699478  0.500067  0.265496  1
  O  O149  1  0.657929  0.500060  0.246235  1
  O  O150  1  0.537750  0.399484  0.258701  1
  O  O151  1  0.537749  0.600643  0.258700  1
  O  O152  1  0.890247  0.500060  0.260407  1
  O  O153  1  0.830454  0.398419  0.276700  1
  O  O154  1  0.830458  0.601721  0.276700  1
  O  O155  1  0.003239  0.398593  0.247466  1
  O  O156  1  0.003232  0.601544  0.247467  1
  O  O157  1  0.164231  0.325809  0.255800  1
  O  O158  1  0.164232  0.674327  0.255799  1
  O  O159  1  0.432272  0.326959  0.244071  1
  O  O160  1  0.432273  0.673166  0.244070  1
  O  O161  1  0.352267  0.332557  0.262377  1
  O  O162  1  0.352268  0.667577  0.262376  1
  O  O163  1  0.004214  0.329349  0.281927  1
  O  O164  1  0.004215  0.670794  0.281927  1
  O  O165  1  0.858237  0.329283  0.295401  1
  O  O166  1  0.858235  0.670862  0.295400  1
  O  O167  1  0.240686  0.500068  0.261994  1
  O  O168  1  0.193282  0.359946  0.275538  1
  O  O169  1  0.193284  0.640196  0.275538  1
  O  O170  1  0.099299  0.500073  0.286118  1
  O  O171  1  0.299656  0.142415  0.326231  1
  O  O172  1  0.299656  0.857732  0.326232  1
  O  O173  1  0.421806  -0.000000  0.333322  1
  O  O174  1  0.344427  0.137877  0.345381  1
  O  O175  1  0.344429  0.862272  0.345381  1
  O  O176  1  0.487376  0.201899  0.333200  1
  O  O177  1  0.487377  0.798253  0.333200  1
  O  O178  1  0.176889  -0.000000  0.319362  1
  O  O179  1  0.111764  0.140589  0.331906  1
  O  O180  1  0.111765  0.859557  0.331906  1
  O  O181  1  0.151234  0.199471  0.312918  1
  O  O182  1  0.151234  0.800677  0.312918  1
  O  O183  1  0.037727  0.000000  0.344005  1
  O  O184  1  0.971460  0.200826  0.344889  1
  O  O185  1  0.971462  0.799322  0.344890  1
  O  O186  1  0.300452  0.500082  0.325977  1
  O  O187  1  0.342001  0.500075  0.345238  1
  O  O188  1  0.462179  0.399498  0.332773  1
  O  O189  1  0.462184  0.600656  0.332773  1
  O  O190  1  0.109683  0.500072  0.331067  1
  O  O191  1  0.169479  0.398424  0.314774  1
  O  O192  1  0.169471  0.601725  0.314774  1
  O  O193  1  0.996694  0.398600  0.344007  1
  O  O194  1  0.996695  0.601550  0.344006  1
  O  O195  1  0.835699  0.325818  0.335674  1
  O  O196  1  0.835699  0.674336  0.335674  1
  O  O197  1  0.567650  0.326974  0.347403  1
  O  O198  1  0.567652  0.673182  0.347404  1
  O  O199  1  0.647664  0.332568  0.329097  1
  O  O200  1  0.647666  0.667587  0.329097  1
  O  O201  1  0.995717  0.329355  0.309547  1
  O  O202  1  0.995714  0.670800  0.309546  1
  O  O203  1  0.141695  0.329284  0.296073  1
  O  O204  1  0.141695  0.670865  0.296073  1
  O  O205  1  0.759246  0.500078  0.329480  1
  O  O206  1  0.806649  0.359952  0.315936  1
  O  O207  1  0.806648  0.640202  0.315936  1
  O  O208  1  0.900633  0.500077  0.305356  1
  O  O209  1  0.658608  0.142426  0.405179  1
  O  O210  1  0.158635  0.142452  0.351136  1
  O  O211  1  0.158637  0.857696  0.351137  1
  O  O212  1  0.658598  0.857669  0.405180  1
  O  O213  1  0.780496  0.000000  0.398092  1
  O  O214  1  0.280528  -0.000000  0.358224  1
  O  O215  1  0.811998  0.202824  0.392418  1
  O  O216  1  0.312017  0.202856  0.363897  1
  O  O217  1  0.312021  0.797295  0.363898  1
  O  O218  1  0.811986  0.797262  0.392419  1
  O  O219  1  0.790987  0.399315  0.394463  1
  O  O220  1  0.291010  0.399352  0.361853  1
  O  O221  1  0.291014  0.600803  0.361853  1
  O  O222  1  0.790991  0.600767  0.394462  1
  O  O223  1  0.354219  0.329294  0.400589  1
  O  O224  1  0.854242  0.329303  0.355727  1
  O  O225  1  0.854247  0.670830  0.355727  1
  O  O226  1  0.354217  0.670813  0.400590  1
  O  O227  1  0.835261  0.329889  0.376202  1
  O  O228  1  0.335265  0.329899  0.380115  1
  O  O229  1  0.335258  0.670232  0.380115  1
  O  O230  1  0.835272  0.670222  0.376202  1
  O  O231  1  0.971612  0.331749  0.391173  1
  O  O232  1  0.471632  0.331777  0.365143  1
  O  O233  1  0.471635  0.668371  0.365144  1
  O  O234  1  0.971613  0.668352  0.391175  1
  O  O235  1  0.316497  0.500058  0.390787  1
  O  O236  1  0.816518  0.500063  0.365528  1
  O  O237  1  0.176462  0.361093  0.392273  1
  O  O238  1  0.676480  0.361109  0.364042  1
  O  O239  1  0.676485  0.639030  0.364043  1
  O  O240  1  0.176459  0.639014  0.392274  1
  O  O241  1  0.054055  0.500047  0.398738  1
  O  O242  1  0.554074  0.500075  0.357579  1
  O  O243  1  0.154380  0.500079  0.350691  1
  O  O244  1  0.654352  0.500051  0.405624  1
  O  O245  1  0.799626  0.142382  0.430084  1
  O  O246  1  0.799617  0.857700  0.430085  1
  O  O247  1  0.921772  -0.000000  0.422994  1
  O  O248  1  0.844399  0.137843  0.410935  1
  O  O249  1  0.844390  0.862238  0.410936  1
  O  O250  1  0.987351  0.201859  0.423115  1
  O  O251  1  0.987338  0.798214  0.423117  1
  O  O252  1  0.676855  -0.000000  0.436954  1
  O  O253  1  0.611736  0.140563  0.424409  1
  O  O254  1  0.611726  0.859532  0.424410  1
  O  O255  1  0.651206  0.199441  0.443398  1
  O  O256  1  0.651197  0.800644  0.443398  1
  O  O257  1  0.537693  0.000000  0.412311  1
  O  O258  1  0.471435  0.200805  0.411426  1
  O  O259  1  0.471422  0.799299  0.411427  1
  O  O260  1  0.800423  0.500030  0.430339  1
  O  O261  1  0.841972  0.500041  0.411077  1
  O  O262  1  0.962154  0.399455  0.423542  1
  O  O263  1  0.962152  0.600614  0.423544  1
  O  O264  1  0.609658  0.500046  0.425249  1
  O  O265  1  0.669442  0.398390  0.441543  1
  O  O266  1  0.669454  0.601694  0.441542  1
  O  O267  1  0.496666  0.398577  0.412309  1
  O  O268  1  0.496667  0.601527  0.412310  1
  O  O269  1  0.335673  0.325788  0.420642  1
  O  O270  1  0.335663  0.674301  0.420643  1
  O  O271  1  0.067635  0.326937  0.408912  1
  O  O272  1  0.067633  0.673145  0.408914  1
  O  O273  1  0.147639  0.332528  0.427219  1
  O  O274  1  0.147633  0.667550  0.427220  1
  O  O275  1  0.495686  0.329314  0.446770  1
  O  O276  1  0.495690  0.670753  0.446770  1
  O  O277  1  0.641674  0.329245  0.460243  1
  O  O278  1  0.641674  0.670825  0.460243  1
  O  O279  1  0.259214  0.500041  0.426837  1
  O  O280  1  0.306620  0.359912  0.440381  1
  O  O281  1  0.306622  0.640163  0.440381  1
  O  O282  1  0.400604  0.500033  0.450961  1
  O  O283  1  0.200265  0.142373  0.491075  1
  O  O284  1  0.200271  0.857692  0.491075  1
  O  O285  1  0.078119  -0.000000  0.498165  1
  O  O286  1  0.155496  0.137831  0.510224  1
  O  O287  1  0.155503  0.862226  0.510224  1
  O  O288  1  0.012544  0.201851  0.498044  1
  O  O289  1  0.012551  0.798207  0.498043  1
  O  O290  1  0.323034  0.000000  0.484205  1
  O  O291  1  0.388157  0.140553  0.496749  1
  O  O292  1  0.388165  0.859522  0.496749  1
  O  O293  1  0.348683  0.199433  0.477761  1
  O  O294  1  0.348689  0.800637  0.477761  1
  O  O295  1  0.462201  -0.000000  0.508848  1
  O  O296  1  0.528461  0.200792  0.509732  1
  O  O297  1  0.528472  0.799287  0.509731  1
  O  O298  1  0.199471  0.500028  0.490820  1
  O  O299  1  0.157922  0.500032  0.510082  1
  O  O300  1  0.037740  0.399448  0.497616  1
  O  O301  1  0.037741  0.600608  0.497616  1
  O  O302  1  0.390237  0.500041  0.495910  1
  O  O303  1  0.330446  0.398382  0.479617  1
  O  O304  1  0.330440  0.601685  0.479617  1
  O  O305  1  0.503230  0.398564  0.508849  1
  O  O306  1  0.503230  0.601514  0.508850  1
  O  O307  1  0.664225  0.325777  0.500516  1
  O  O308  1  0.664229  0.674288  0.500516  1
  O  O309  1  0.932262  0.326929  0.512247  1
  O  O310  1  0.932263  0.673135  0.512246  1
  O  O311  1  0.852256  0.332519  0.493940  1
  O  O312  1  0.852260  0.667541  0.493939  1
  O  O313  1  0.504201  0.329311  0.474389  1
  O  O314  1  0.504201  0.670751  0.474389  1
  O  O315  1  0.358212  0.329246  0.460916  1
  O  O316  1  0.358217  0.670824  0.460916  1
  O  O317  1  0.740680  0.500030  0.494322  1
  O  O318  1  0.693270  0.359905  0.480778  1
  O  O319  1  0.693271  0.640157  0.480778  1
  O  O320  1  0.599285  0.500031  0.470198  1
  O  O321  1  0.841295  0.142442  0.570023  1
  O  O322  1  0.341289  0.142412  0.515980  1
  O  O323  1  0.341298  0.857655  0.515979  1
  O  O324  1  0.841296  0.857686  0.570022  1
  O  O325  1  0.719403  -0.000000  0.562934  1
  O  O326  1  0.219402  -0.000000  0.523067  1
  O  O327  1  0.687911  0.202843  0.557262  1
  O  O328  1  0.187901  0.202808  0.528741  1
  O  O329  1  0.187915  0.797248  0.528740  1
  O  O330  1  0.687908  0.797281  0.557261  1
  O  O331  1  0.708916  0.399338  0.559306  1
  O  O332  1  0.208909  0.399298  0.526696  1
  O  O333  1  0.208909  0.600751  0.526697  1
  O  O334  1  0.708913  0.600789  0.559306  1
  O  O335  1  0.145688  0.329291  0.565432  1
  O  O336  1  0.645676  0.329280  0.520569  1
  O  O337  1  0.645683  0.670807  0.520569  1
  O  O338  1  0.145681  0.670815  0.565432  1
  O  O339  1  0.664644  0.329887  0.541045  1
  O  O340  1  0.164650  0.329876  0.544958  1
  O  O341  1  0.164642  0.670208  0.544958  1
  O  O342  1  0.664650  0.670219  0.541044  1
  O  O343  1  0.528292  0.331760  0.556017  1
  O  O344  1  0.028285  0.331734  0.529986  1
  O  O345  1  0.028289  0.668338  0.529985  1
  O  O346  1  0.528289  0.668359  0.556016  1
  O  O347  1  0.183406  0.500048  0.555631  1
  O  O348  1  0.683401  0.500046  0.530371  1
  O  O349  1  0.323446  0.361094  0.557116  1
  O  O350  1  0.823435  0.361082  0.528886  1
  O  O351  1  0.823440  0.639000  0.528886  1
  O  O352  1  0.323441  0.639015  0.557116  1
  O  O353  1  0.445850  0.500059  0.563581  1
  O  O354  1  0.945847  0.500035  0.522421  1
  O  O355  1  0.345545  0.500035  0.515535  1
  O  O356  1  0.845549  0.500066  0.570467  1
  O  O357  1  0.700275  0.142408  0.594927  1
  O  O358  1  0.700279  0.857725  0.594927  1
  O  O359  1  0.578127  0.000000  0.587837  1
  O  O360  1  0.655503  0.137865  0.575779  1
  O  O361  1  0.655505  0.862261  0.575778  1
  O  O362  1  0.512554  0.201886  0.587959  1
  O  O363  1  0.512557  0.798241  0.587958  1
  O  O364  1  0.823044  0.000000  0.601797  1
  O  O365  1  0.888166  0.140584  0.589253  1
  O  O366  1  0.888169  0.859552  0.589253  1
  O  O367  1  0.848697  0.199466  0.608241  1
  O  O368  1  0.848699  0.800673  0.608241  1
  O  O369  1  0.962204  -0.000000  0.577154  1
  O  O370  1  0.028469  0.200818  0.576270  1
  O  O371  1  0.028471  0.799315  0.576269  1
  O  O372  1  0.699478  0.500067  0.595182  1
  O  O373  1  0.657929  0.500060  0.575920  1
  O  O374  1  0.537750  0.399484  0.588386  1
  O  O375  1  0.537749  0.600643  0.588386  1
  O  O376  1  0.890247  0.500060  0.590092  1
  O  O377  1  0.830454  0.398419  0.606386  1
  O  O378  1  0.830458  0.601721  0.606385  1
  O  O379  1  0.003239  0.398593  0.577152  1
  O  O380  1  0.003232  0.601544  0.577153  1
  O  O381  1  0.164231  0.325809  0.585485  1
  O  O382  1  0.164232  0.674327  0.585485  1
  O  O383  1  0.432272  0.326959  0.573756  1
  O  O384  1  0.432273  0.673166  0.573755  1
  O  O385  1  0.352267  0.332557  0.592062  1
  O  O386  1  0.352268  0.667577  0.592062  1
  O  O387  1  0.004214  0.329349  0.611613  1
  O  O388  1  0.004215  0.670794  0.611612  1
  O  O389  1  0.858237  0.329283  0.625086  1
  O  O390  1  0.858235  0.670862  0.625086  1
  O  O391  1  0.240686  0.500068  0.591679  1
  O  O392  1  0.193282  0.359946  0.605223  1
  O  O393  1  0.193284  0.640196  0.605223  1
  O  O394  1  0.099299  0.500073  0.615803  1
  O  O395  1  0.299656  0.142415  0.655917  1
  O  O396  1  0.299656  0.857732  0.655917  1
  O  O397  1  0.421806  -0.000000  0.663007  1
  O  O398  1  0.344427  0.137877  0.675066  1
  O  O399  1  0.344429  0.862272  0.675066  1
  O  O400  1  0.487376  0.201899  0.662885  1
  O  O401  1  0.487377  0.798253  0.662886  1
  O  O402  1  0.176889  -0.000000  0.649048  1
  O  O403  1  0.111764  0.140589  0.661591  1
  O  O404  1  0.111765  0.859557  0.661592  1
  O  O405  1  0.151234  0.199471  0.642604  1
  O  O406  1  0.151234  0.800677  0.642604  1
  O  O407  1  0.037727  -0.000000  0.673690  1
  O  O408  1  0.971460  0.200826  0.674574  1
  O  O409  1  0.971462  0.799322  0.674575  1
  O  O410  1  0.300452  0.500082  0.655663  1
  O  O411  1  0.342001  0.500075  0.674924  1
  O  O412  1  0.462179  0.399498  0.662458  1
  O  O413  1  0.462184  0.600656  0.662459  1
  O  O414  1  0.109683  0.500072  0.660752  1
  O  O415  1  0.169479  0.398424  0.644459  1
  O  O416  1  0.169471  0.601725  0.644459  1
  O  O417  1  0.996694  0.398600  0.673693  1
  O  O418  1  0.996695  0.601550  0.673692  1
  O  O419  1  0.835699  0.325818  0.665359  1
  O  O420  1  0.835699  0.674336  0.665359  1
  O  O421  1  0.567650  0.326974  0.677089  1
  O  O422  1  0.567652  0.673182  0.677090  1
  O  O423  1  0.647664  0.332568  0.658783  1
  O  O424  1  0.647666  0.667587  0.658783  1
  O  O425  1  0.995717  0.329355  0.639232  1
  O  O426  1  0.995714  0.670800  0.639232  1
  O  O427  1  0.141695  0.329284  0.625759  1
  O  O428  1  0.141695  0.670865  0.625758  1
  O  O429  1  0.759246  0.500078  0.659166  1
  O  O430  1  0.806649  0.359952  0.645621  1
  O  O431  1  0.806648  0.640202  0.645621  1
  O  O432  1  0.900633  0.500077  0.635041  1
  O  O433  1  0.658608  0.142426  0.734865  1
  O  O434  1  0.158635  0.142452  0.680822  1
  O  O435  1  0.158637  0.857696  0.680822  1
  O  O436  1  0.658598  0.857669  0.734865  1
  O  O437  1  0.780496  -0.000000  0.727777  1
  O  O438  1  0.280528  -0.000000  0.687910  1
  O  O439  1  0.811998  0.202824  0.722104  1
  O  O440  1  0.312017  0.202856  0.693582  1
  O  O441  1  0.312021  0.797295  0.693583  1
  O  O442  1  0.811986  0.797262  0.722105  1
  O  O443  1  0.790987  0.399315  0.724149  1
  O  O444  1  0.291010  0.399352  0.691539  1
  O  O445  1  0.291014  0.600803  0.691538  1
  O  O446  1  0.790991  0.600767  0.724148  1
  O  O447  1  0.354219  0.329294  0.730275  1
  O  O448  1  0.854242  0.329303  0.685412  1
  O  O449  1  0.854247  0.670830  0.685413  1
  O  O450  1  0.354217  0.670813  0.730275  1
  O  O451  1  0.835261  0.329889  0.705887  1
  O  O452  1  0.335265  0.329899  0.709800  1
  O  O453  1  0.335258  0.670232  0.709800  1
  O  O454  1  0.835272  0.670222  0.705887  1
  O  O455  1  0.971612  0.331749  0.720859  1
  O  O456  1  0.471632  0.331777  0.694828  1
  O  O457  1  0.471635  0.668371  0.694829  1
  O  O458  1  0.971613  0.668352  0.720860  1
  O  O459  1  0.316497  0.500058  0.720473  1
  O  O460  1  0.816518  0.500063  0.695214  1
  O  O461  1  0.176462  0.361093  0.721958  1
  O  O462  1  0.676480  0.361109  0.693728  1
  O  O463  1  0.676485  0.639030  0.693729  1
  O  O464  1  0.176459  0.639014  0.721959  1
  O  O465  1  0.054055  0.500047  0.728424  1
  O  O466  1  0.554074  0.500075  0.687264  1
  O  O467  1  0.154380  0.500079  0.680377  1
  O  O468  1  0.654352  0.500051  0.735309  1
  O  O469  1  0.799626  0.142382  0.759769  1
  O  O470  1  0.799617  0.857700  0.759770  1
  O  O471  1  0.921772  0.000000  0.752680  1
  O  O472  1  0.844399  0.137843  0.740620  1
  O  O473  1  0.844390  0.862238  0.740621  1
  O  O474  1  0.987351  0.201859  0.752801  1
  O  O475  1  0.987338  0.798214  0.752802  1
  O  O476  1  0.676855  0.000000  0.766639  1
  O  O477  1  0.611736  0.140563  0.754095  1
  O  O478  1  0.611726  0.859532  0.754096  1
  O  O479  1  0.651206  0.199441  0.773083  1
  O  O480  1  0.651197  0.800644  0.773084  1
  O  O481  1  0.537693  -0.000000  0.741996  1
  O  O482  1  0.471435  0.200805  0.741112  1
  O  O483  1  0.471422  0.799299  0.741113  1
  O  O484  1  0.800423  0.500030  0.760024  1
  O  O485  1  0.841972  0.500041  0.740763  1
  O  O486  1  0.962154  0.399455  0.753228  1
  O  O487  1  0.962152  0.600614  0.753229  1
  O  O488  1  0.609658  0.500046  0.754935  1
  O  O489  1  0.669442  0.398390  0.771228  1
  O  O490  1  0.669454  0.601694  0.771228  1
  O  O491  1  0.496666  0.398577  0.741995  1
  O  O492  1  0.496667  0.601527  0.741995  1
  O  O493  1  0.335673  0.325788  0.750328  1
  O  O494  1  0.335663  0.674301  0.750328  1
  O  O495  1  0.067635  0.326937  0.738598  1
  O  O496  1  0.067633  0.673145  0.738599  1
  O  O497  1  0.147639  0.332528  0.756904  1
  O  O498  1  0.147633  0.667550  0.756906  1
  O  O499  1  0.495686  0.329314  0.776455  1
  O  O500  1  0.495690  0.670753  0.776455  1
  O  O501  1  0.641674  0.329245  0.789928  1
  O  O502  1  0.641674  0.670825  0.789928  1
  O  O503  1  0.259214  0.500041  0.756522  1
  O  O504  1  0.306620  0.359912  0.770066  1
  O  O505  1  0.306622  0.640163  0.770067  1
  O  O506  1  0.400604  0.500033  0.780646  1
  O  O507  1  0.200265  0.142373  0.820761  1
  O  O508  1  0.200271  0.857692  0.820760  1
  O  O509  1  0.078119  0.000000  0.827850  1
  O  O510  1  0.155496  0.137831  0.839910  1
  O  O511  1  0.155503  0.862226  0.839909  1
  O  O512  1  0.012544  0.201851  0.827729  1
  O  O513  1  0.012551  0.798207  0.827728  1
  O  O514  1  0.323034  -0.000000  0.813891  1
  O  O515  1  0.388157  0.140553  0.826435  1
  O  O516  1  0.388165  0.859522  0.826434  1
  O  O517  1  0.348683  0.199433  0.807447  1
  O  O518  1  0.348689  0.800637  0.807446  1
  O  O519  1  0.462201  0.000000  0.838533  1
  O  O520  1  0.528461  0.200792  0.839418  1
  O  O521  1  0.528472  0.799287  0.839417  1
  O  O522  1  0.199471  0.500028  0.820506  1
  O  O523  1  0.157922  0.500032  0.839767  1
  O  O524  1  0.037740  0.399448  0.827302  1
  O  O525  1  0.037741  0.600608  0.827301  1
  O  O526  1  0.390237  0.500041  0.825595  1
  O  O527  1  0.330446  0.398382  0.809302  1
  O  O528  1  0.330440  0.601685  0.809302  1
  O  O529  1  0.503230  0.398564  0.838535  1
  O  O530  1  0.503230  0.601514  0.838535  1
  O  O531  1  0.664225  0.325777  0.830202  1
  O  O532  1  0.664229  0.674288  0.830202  1
  O  O533  1  0.932262  0.326929  0.841932  1
  O  O534  1  0.932263  0.673135  0.841931  1
  O  O535  1  0.852256  0.332519  0.823625  1
  O  O536  1  0.852260  0.667541  0.823625  1
  O  O537  1  0.504201  0.329311  0.804075  1
  O  O538  1  0.504201  0.670751  0.804075  1
  O  O539  1  0.358212  0.329246  0.790602  1
  O  O540  1  0.358217  0.670824  0.790602  1
  O  O541  1  0.740680  0.500030  0.824007  1
  O  O542  1  0.693270  0.359905  0.810464  1
  O  O543  1  0.693271  0.640157  0.810463  1
  O  O544  1  0.599285  0.500031  0.799884  1
  O  O545  1  0.341289  0.142412  0.845665  1
  O  O546  1  0.341298  0.857655  0.845664  1
  O  O547  1  0.219402  -0.000000  0.852753  1
  O  O548  1  0.187901  0.202808  0.858426  1
  O  O549  1  0.187915  0.797248  0.858425  1
  O  O550  1  0.208909  0.399298  0.856381  1
  O  O551  1  0.208909  0.600751  0.856382  1
  O  O552  1  0.645676  0.329280  0.850255  1
  O  O553  1  0.645683  0.670807  0.850255  1
  O  O554  1  0.664644  0.329887  0.870730  1
  O  O555  1  0.164650  0.329876  0.874643  1
  O  O556  1  0.164642  0.670208  0.874643  1
  O  O557  1  0.664650  0.670219  0.870730  1
  O  O558  1  0.028285  0.331734  0.859671  1
  O  O559  1  0.028289  0.668338  0.859670  1
  O  O560  1  0.683401  0.500046  0.860056  1
  O  O561  1  0.823435  0.361082  0.858571  1
  O  O562  1  0.823440  0.639000  0.858571  1
  O  O563  1  0.945847  0.500035  0.852107  1
  O  O564  1  0.345545  0.500035  0.845220  1
  Si  Si565  1  0.773266  0.121568  0.071309  1
  Si  Si566  1  0.773256  0.878520  0.071310  1
  Si  Si567  1  0.768435  0.500044  0.071541  1
  Si  Si568  1  0.853468  0.312677  0.058590  1
  Si  Si569  1  0.853469  0.687416  0.058591  1
  Si  Si570  1  0.297313  0.377652  0.061139  1
  Si  Si571  1  0.297311  0.622466  0.061139  1
  Si  Si572  1  0.066740  0.377145  0.067913  1
  Si  Si573  1  0.066740  0.622950  0.067914  1
  Si  Si574  1  0.385935  0.622946  0.120039  1
  Si  Si575  1  0.893174  0.121542  0.092491  1
  Si  Si576  1  0.893165  0.878534  0.092492  1
  Si  Si577  1  0.684646  0.121808  0.104542  1
  Si  Si578  1  0.684636  0.878276  0.104542  1
  Si  Si579  1  0.565088  0.121758  0.083401  1
  Si  Si580  1  0.565078  0.878341  0.083401  1
  Si  Si581  1  0.892571  0.500034  0.092629  1
  Si  Si582  1  0.687014  0.500042  0.105135  1
  Si  Si583  1  0.563218  0.500053  0.084156  1
  Si  Si584  1  0.412810  0.310219  0.081524  1
  Si  Si585  1  0.412804  0.689882  0.081525  1
  Si  Si586  1  0.043734  0.310966  0.091270  1
  Si  Si587  1  0.043726  0.689109  0.091272  1
  Si  Si588  1  0.616333  0.309216  0.118501  1
  Si  Si589  1  0.616336  0.690863  0.118501  1
  Si  Si590  1  0.260943  0.377532  0.099280  1
  Si  Si591  1  0.260941  0.622550  0.099281  1
  Si  Si592  1  0.385930  0.377125  0.120039  1
  Si  Si593  1  0.613957  0.622943  0.141749  1
  Si  Si594  1  0.106720  0.121535  0.169297  1
  Si  Si595  1  0.106724  0.878525  0.169297  1
  Si  Si596  1  0.315246  0.121802  0.157246  1
  Si  Si597  1  0.315252  0.878269  0.157246  1
  Si  Si598  1  0.434808  0.121747  0.178387  1
  Si  Si599  1  0.434817  0.878329  0.178387  1
  Si  Si600  1  0.107323  0.500029  0.169159  1
  Si  Si601  1  0.312880  0.500035  0.156653  1
  Si  Si602  1  0.436677  0.500040  0.177633  1
  Si  Si603  1  0.587085  0.310206  0.180264  1
  Si  Si604  1  0.587092  0.689870  0.180264  1
  Si  Si605  1  0.956162  0.310961  0.170518  1
  Si  Si606  1  0.956164  0.689100  0.170517  1
  Si  Si607  1  0.383554  0.309211  0.143287  1
  Si  Si608  1  0.383556  0.690856  0.143287  1
  Si  Si609  1  0.738950  0.377523  0.162508  1
  Si  Si610  1  0.738952  0.622540  0.162507  1
  Si  Si611  1  0.613957  0.377123  0.141749  1
  Si  Si612  1  0.726638  0.121586  0.236152  1
  Si  Si613  1  0.226632  0.121555  0.190479  1
  Si  Si614  1  0.226640  0.878505  0.190479  1
  Si  Si615  1  0.726637  0.878537  0.236152  1
  Si  Si616  1  0.731468  0.500064  0.236383  1
  Si  Si617  1  0.231460  0.500028  0.190248  1
  Si  Si618  1  0.646439  0.312693  0.223434  1
  Si  Si619  1  0.146430  0.312663  0.203198  1
  Si  Si620  1  0.146433  0.687400  0.203197  1
  Si  Si621  1  0.646437  0.687429  0.223433  1
  Si  Si622  1  0.202593  0.377641  0.225981  1
  Si  Si623  1  0.702586  0.377640  0.200649  1
  Si  Si624  1  0.702590  0.622454  0.200649  1
  Si  Si625  1  0.202589  0.622457  0.225982  1
  Si  Si626  1  0.433166  0.377157  0.232756  1
  Si  Si627  1  0.933162  0.377134  0.193876  1
  Si  Si628  1  0.933162  0.622937  0.193875  1
  Si  Si629  1  0.433165  0.622963  0.232755  1
  Si  Si630  1  0.113972  0.622981  0.284881  1
  Si  Si631  1  0.606728  0.121568  0.257335  1
  Si  Si632  1  0.606730  0.878559  0.257334  1
  Si  Si633  1  0.815258  0.121837  0.269386  1
  Si  Si634  1  0.815260  0.878302  0.269385  1
  Si  Si635  1  0.934816  0.121776  0.248244  1
  Si  Si636  1  0.934817  0.878356  0.248243  1
  Si  Si637  1  0.607333  0.500064  0.257472  1
  Si  Si638  1  0.812893  0.500067  0.269979  1
  Si  Si639  1  0.936684  0.500066  0.248999  1
  Si  Si640  1  0.087093  0.310232  0.246367  1
  Si  Si641  1  0.087092  0.689898  0.246367  1
  Si  Si642  1  0.456171  0.310994  0.256114  1
  Si  Si643  1  0.456172  0.689135  0.256113  1
  Si  Si644  1  0.883571  0.309248  0.283344  1
  Si  Si645  1  0.883572  0.690891  0.283344  1
  Si  Si646  1  0.238956  0.377561  0.264123  1
  Si  Si647  1  0.238957  0.622577  0.264123  1
  Si  Si648  1  0.113969  0.377163  0.284882  1
  Si  Si649  1  0.885960  0.622985  0.306592  1
  Si  Si650  1  0.393204  0.121579  0.334139  1
  Si  Si651  1  0.393202  0.878571  0.334139  1
  Si  Si652  1  0.184673  0.121840  0.322088  1
  Si  Si653  1  0.184673  0.878306  0.322088  1
  Si  Si654  1  0.065114  0.121782  0.343229  1
  Si  Si655  1  0.065116  0.878364  0.343230  1
  Si  Si656  1  0.392598  0.500077  0.334001  1
  Si  Si657  1  0.187038  0.500076  0.321495  1
  Si  Si658  1  0.063245  0.500075  0.342475  1
  Si  Si659  1  0.912837  0.310239  0.345106  1
  Si  Si660  1  0.912839  0.689909  0.345107  1
  Si  Si661  1  0.543758  0.311007  0.335360  1
  Si  Si662  1  0.543760  0.689146  0.335361  1
  Si  Si663  1  0.116361  0.309253  0.308129  1
  Si  Si664  1  0.116359  0.690898  0.308129  1
  Si  Si665  1  0.760974  0.377569  0.327350  1
  Si  Si666  1  0.760975  0.622585  0.327351  1
  Si  Si667  1  0.885963  0.377166  0.306592  1
  Si  Si668  1  0.773266  0.121568  0.400995  1
  Si  Si669  1  0.273292  0.121598  0.355321  1
  Si  Si670  1  0.273294  0.878549  0.355322  1
  Si  Si671  1  0.773256  0.878520  0.400996  1
  Si  Si672  1  0.768435  0.500044  0.401226  1
  Si  Si673  1  0.268463  0.500078  0.355090  1
  Si  Si674  1  0.853468  0.312677  0.388276  1
  Si  Si675  1  0.353485  0.312707  0.368040  1
  Si  Si676  1  0.353487  0.687442  0.368041  1
  Si  Si677  1  0.853469  0.687416  0.388277  1
  Si  Si678  1  0.297313  0.377652  0.390824  1
  Si  Si679  1  0.797330  0.377656  0.365492  1
  Si  Si680  1  0.797334  0.622472  0.365492  1
  Si  Si681  1  0.297311  0.622466  0.390824  1
  Si  Si682  1  0.066740  0.377145  0.397598  1
  Si  Si683  1  0.566755  0.377173  0.358718  1
  Si  Si684  1  0.566757  0.622977  0.358718  1
  Si  Si685  1  0.066740  0.622950  0.397599  1
  Si  Si686  1  0.385935  0.622946  0.449724  1
  Si  Si687  1  0.893174  0.121542  0.422177  1
  Si  Si688  1  0.893165  0.878534  0.422177  1
  Si  Si689  1  0.684646  0.121808  0.434227  1
  Si  Si690  1  0.684636  0.878276  0.434228  1
  Si  Si691  1  0.565088  0.121758  0.413086  1
  Si  Si692  1  0.565078  0.878341  0.413087  1
  Si  Si693  1  0.892571  0.500034  0.422314  1
  Si  Si694  1  0.687014  0.500042  0.434821  1
  Si  Si695  1  0.563218  0.500053  0.413841  1
  Si  Si696  1  0.412810  0.310219  0.411210  1
  Si  Si697  1  0.412804  0.689882  0.411210  1
  Si  Si698  1  0.043734  0.310966  0.420955  1
  Si  Si699  1  0.043726  0.689109  0.420957  1
  Si  Si700  1  0.616333  0.309216  0.448186  1
  Si  Si701  1  0.616336  0.690863  0.448186  1
  Si  Si702  1  0.260943  0.377532  0.428966  1
  Si  Si703  1  0.260941  0.622550  0.428966  1
  Si  Si704  1  0.385930  0.377125  0.449724  1
  Si  Si705  1  0.613957  0.622943  0.471435  1
  Si  Si706  1  0.106720  0.121535  0.498983  1
  Si  Si707  1  0.106724  0.878525  0.498982  1
  Si  Si708  1  0.315246  0.121802  0.486932  1
  Si  Si709  1  0.315252  0.878269  0.486931  1
  Si  Si710  1  0.434808  0.121747  0.508073  1
  Si  Si711  1  0.434817  0.878329  0.508072  1
  Si  Si712  1  0.107323  0.500029  0.498845  1
  Si  Si713  1  0.312880  0.500035  0.486338  1
  Si  Si714  1  0.436677  0.500040  0.507318  1
  Si  Si715  1  0.587085  0.310206  0.509949  1
  Si  Si716  1  0.587092  0.689870  0.509949  1
  Si  Si717  1  0.956162  0.310961  0.500204  1
  Si  Si718  1  0.956164  0.689100  0.500203  1
  Si  Si719  1  0.383554  0.309211  0.472973  1
  Si  Si720  1  0.383556  0.690856  0.472972  1
  Si  Si721  1  0.738950  0.377523  0.492193  1
  Si  Si722  1  0.738952  0.622540  0.492193  1
  Si  Si723  1  0.613957  0.377123  0.471435  1
  Si  Si724  1  0.726638  0.121586  0.565838  1
  Si  Si725  1  0.226632  0.121555  0.520165  1
  Si  Si726  1  0.226640  0.878505  0.520164  1
  Si  Si727  1  0.726637  0.878537  0.565838  1
  Si  Si728  1  0.731468  0.500064  0.566069  1
  Si  Si729  1  0.231460  0.500028  0.519933  1
  Si  Si730  1  0.646439  0.312693  0.553119  1
  Si  Si731  1  0.146430  0.312663  0.532883  1
  Si  Si732  1  0.146433  0.687400  0.532883  1
  Si  Si733  1  0.646437  0.687429  0.553118  1
  Si  Si734  1  0.202593  0.377641  0.555667  1
  Si  Si735  1  0.702586  0.377640  0.530334  1
  Si  Si736  1  0.702590  0.622454  0.530335  1
  Si  Si737  1  0.202589  0.622457  0.555667  1
  Si  Si738  1  0.433166  0.377157  0.562441  1
  Si  Si739  1  0.933162  0.377134  0.523561  1
  Si  Si740  1  0.933162  0.622937  0.523560  1
  Si  Si741  1  0.433165  0.622963  0.562441  1
  Si  Si742  1  0.113972  0.622981  0.614567  1
  Si  Si743  1  0.606728  0.121568  0.587020  1
  Si  Si744  1  0.606730  0.878559  0.587020  1
  Si  Si745  1  0.815258  0.121837  0.599071  1
  Si  Si746  1  0.815260  0.878302  0.599071  1
  Si  Si747  1  0.934816  0.121776  0.577929  1
  Si  Si748  1  0.934817  0.878356  0.577929  1
  Si  Si749  1  0.607333  0.500064  0.587158  1
  Si  Si750  1  0.812893  0.500067  0.599664  1
  Si  Si751  1  0.936684  0.500066  0.578684  1
  Si  Si752  1  0.087093  0.310232  0.576053  1
  Si  Si753  1  0.087092  0.689898  0.576053  1
  Si  Si754  1  0.456171  0.310994  0.585799  1
  Si  Si755  1  0.456172  0.689135  0.585798  1
  Si  Si756  1  0.883571  0.309248  0.613030  1
  Si  Si757  1  0.883572  0.690891  0.613029  1
  Si  Si758  1  0.238956  0.377561  0.593809  1
  Si  Si759  1  0.238957  0.622577  0.593808  1
  Si  Si760  1  0.113969  0.377163  0.614567  1
  Si  Si761  1  0.885960  0.622985  0.636278  1
  Si  Si762  1  0.393204  0.121579  0.663824  1
  Si  Si763  1  0.393202  0.878571  0.663824  1
  Si  Si764  1  0.184673  0.121840  0.651773  1
  Si  Si765  1  0.184673  0.878306  0.651774  1
  Si  Si766  1  0.065114  0.121782  0.672915  1
  Si  Si767  1  0.065116  0.878364  0.672915  1
  Si  Si768  1  0.392598  0.500077  0.663687  1
  Si  Si769  1  0.187038  0.500076  0.651180  1
  Si  Si770  1  0.063245  0.500075  0.672160  1
  Si  Si771  1  0.912837  0.310239  0.674792  1
  Si  Si772  1  0.912839  0.689909  0.674792  1
  Si  Si773  1  0.543758  0.311007  0.665046  1
  Si  Si774  1  0.543760  0.689146  0.665046  1
  Si  Si775  1  0.116361  0.309253  0.637815  1
  Si  Si776  1  0.116359  0.690898  0.637815  1
  Si  Si777  1  0.760974  0.377569  0.657036  1
  Si  Si778  1  0.760975  0.622585  0.657036  1
  Si  Si779  1  0.885963  0.377166  0.636278  1
  Si  Si780  1  0.773266  0.121568  0.730680  1
  Si  Si781  1  0.273292  0.121598  0.685006  1
  Si  Si782  1  0.273294  0.878549  0.685007  1
  Si  Si783  1  0.773256  0.878520  0.730681  1
  Si  Si784  1  0.768435  0.500044  0.730911  1
  Si  Si785  1  0.268463  0.500078  0.684776  1
  Si  Si786  1  0.853468  0.312677  0.717961  1
  Si  Si787  1  0.353485  0.312707  0.697726  1
  Si  Si788  1  0.353487  0.687442  0.697727  1
  Si  Si789  1  0.853469  0.687416  0.717962  1
  Si  Si790  1  0.297313  0.377652  0.720510  1
  Si  Si791  1  0.797330  0.377656  0.695177  1
  Si  Si792  1  0.797334  0.622472  0.695177  1
  Si  Si793  1  0.297311  0.622466  0.720510  1
  Si  Si794  1  0.066740  0.377145  0.727284  1
  Si  Si795  1  0.566755  0.377173  0.688403  1
  Si  Si796  1  0.566757  0.622977  0.688404  1
  Si  Si797  1  0.066740  0.622950  0.727285  1
  Si  Si798  1  0.385935  0.622946  0.779410  1
  Si  Si799  1  0.893174  0.121542  0.751862  1
  Si  Si800  1  0.893165  0.878534  0.751863  1
  Si  Si801  1  0.684646  0.121808  0.763913  1
  Si  Si802  1  0.684636  0.878276  0.763913  1
  Si  Si803  1  0.565088  0.121758  0.742772  1
  Si  Si804  1  0.565078  0.878341  0.742772  1
  Si  Si805  1  0.892571  0.500034  0.752000  1
  Si  Si806  1  0.687014  0.500042  0.764506  1
  Si  Si807  1  0.563218  0.500053  0.743526  1
  Si  Si808  1  0.412810  0.310219  0.740895  1
  Si  Si809  1  0.412804  0.689882  0.740896  1
  Si  Si810  1  0.043734  0.310966  0.750641  1
  Si  Si811  1  0.043726  0.689109  0.750642  1
  Si  Si812  1  0.616333  0.309216  0.777872  1
  Si  Si813  1  0.616336  0.690863  0.777872  1
  Si  Si814  1  0.260943  0.377532  0.758651  1
  Si  Si815  1  0.260941  0.622550  0.758651  1
  Si  Si816  1  0.385930  0.377125  0.779410  1
  Si  Si817  1  0.613957  0.622943  0.801120  1
  Si  Si818  1  0.106720  0.121535  0.828668  1
  Si  Si819  1  0.106724  0.878525  0.828667  1
  Si  Si820  1  0.315246  0.121802  0.816617  1
  Si  Si821  1  0.315252  0.878269  0.816616  1
  Si  Si822  1  0.434808  0.121747  0.837758  1
  Si  Si823  1  0.434817  0.878329  0.837758  1
  Si  Si824  1  0.107323  0.500029  0.828530  1
  Si  Si825  1  0.312880  0.500035  0.816024  1
  Si  Si826  1  0.436677  0.500040  0.837004  1
  Si  Si827  1  0.587085  0.310206  0.839635  1
  Si  Si828  1  0.587092  0.689870  0.839634  1
  Si  Si829  1  0.956162  0.310961  0.829889  1
  Si  Si830  1  0.956164  0.689100  0.829888  1
  Si  Si831  1  0.383554  0.309211  0.802658  1
  Si  Si832  1  0.383556  0.690856  0.802658  1
  Si  Si833  1  0.738950  0.377523  0.821879  1
  Si  Si834  1  0.738952  0.622540  0.821878  1
  Si  Si835  1  0.613957  0.377123  0.801120  1
  Si  Si836  1  0.226632  0.121555  0.849850  1
  Si  Si837  1  0.226640  0.878505  0.849849  1
  Si  Si838  1  0.231460  0.500028  0.849619  1
  Si  Si839  1  0.146430  0.312663  0.862569  1
  Si  Si840  1  0.146433  0.687400  0.862568  1
  Si  Si841  1  0.702586  0.377640  0.860020  1
  Si  Si842  1  0.702590  0.622454  0.860020  1
  Si  Si843  1  0.933162  0.377134  0.853246  1
  Si  Si844  1  0.933162  0.622937  0.853246  1
  H  H845  1  0.835261  0.329889  0.039420  1
  H  H846  1  0.335265  0.329899  0.043333  1
  H  H847  1  0.335258  0.670232  0.043334  1
  H  H848  1  0.835272  0.670222  0.039421  1
  H  H849  1  0.664644  0.329887  0.877826  1
  H  H850  1  0.164650  0.329876  0.881739  1
  H  H851  1  0.164642  0.670208  0.881739  1
  H  H852  1  0.664650  0.670219  0.877825  1
