# generated using pymatgen
data_Si96H2O193
_symmetry_space_group_name_H-M   'P 1'
_cell_length_a   14.22215015
_cell_length_b   20.03147368
_cell_length_c   172.87467434
_cell_angle_alpha   90.00000000
_cell_angle_beta   90.00000000
_cell_angle_gamma   90.00000000
_symmetry_Int_Tables_number   1
_chemical_formula_structural   Si96H2O193
_chemical_formula_sum   'Si768 H16 O1544'
_cell_volume   49250.3742626
_cell_formula_units_Z   8
loop_
 _symmetry_equiv_pos_site_id
 _symmetry_equiv_pos_as_xyz
  1  'x, y, z'
loop_
 _atom_site_type_symbol
 _atom_site_label
 _atom_site_symmetry_multiplicity
 _atom_site_fract_x
 _atom_site_fract_y
 _atom_site_fract_z
 _atom_site_occupancy
  O  O1  1  0.907537  0.955410  0.285819  1
  O  O2  1  0.092495  0.955406  0.285819  1
  O  O3  1  0.092507  0.544534  0.285818  1
  O  O4  1  0.907545  0.544507  0.285818  1
  O  O5  1  0.000000  0.875991  0.276740  1
  O  O6  1  -0.000000  0.623923  0.276737  1
  O  O7  1  0.092782  0.838295  0.264895  1
  O  O8  1  0.907206  0.838280  0.264898  1
  O  O9  1  0.907212  0.661641  0.264893  1
  O  O10  1  0.092790  0.661629  0.264894  1
  O  O11  1  0.000000  0.749954  0.272034  1
  O  O12  1  -0.000000  0.749964  0.237035  1
  O  O13  1  0.909978  0.845628  0.243553  1
  O  O14  1  0.090041  0.845801  0.243527  1
  O  O15  1  0.090071  0.654124  0.243527  1
  O  O16  1  0.910011  0.654218  0.243549  1
  O  O17  1  0.000000  0.873132  0.231507  1
  O  O18  1  -0.000000  0.626833  0.231505  1
  O  O19  1  0.903425  0.557445  0.222110  1
  O  O20  1  0.096021  0.558717  0.222037  1
  O  O21  1  0.095947  0.941251  0.222038  1
  O  O22  1  0.903359  0.942594  0.222116  1
  O  O23  1  0.760890  0.948802  0.294920  1
  O  O24  1  0.239132  0.948796  0.294922  1
  O  O25  1  0.239133  0.551131  0.294921  1
  O  O26  1  0.760882  0.551127  0.294917  1
  O  O27  1  0.745314  0.949430  0.279952  1
  O  O28  1  0.254733  0.949318  0.279956  1
  O  O29  1  0.254750  0.550606  0.279955  1
  O  O30  1  0.745341  0.550513  0.279949  1
  O  O31  1  0.786715  0.845482  0.254041  1
  O  O32  1  0.213151  0.845428  0.254030  1
  O  O33  1  0.213179  0.654537  0.254030  1
  O  O34  1  0.786719  0.654502  0.254033  1
  O  O35  1  0.739718  0.874570  0.267984  1
  O  O36  1  0.260310  0.874560  0.267974  1
  O  O37  1  0.260323  0.625369  0.267973  1
  O  O38  1  0.739726  0.625336  0.267976  1
  O  O39  1  0.779935  0.749957  0.263946  1
  O  O40  1  0.220018  0.749968  0.263943  1
  O  O41  1  0.739843  0.848103  0.239343  1
  O  O42  1  0.260240  0.848071  0.239345  1
  O  O43  1  0.260272  0.651915  0.239344  1
  O  O44  1  0.739921  0.651912  0.239333  1
  O  O45  1  0.812621  0.949935  0.245875  1
  O  O46  1  0.187522  0.949988  0.245884  1
  O  O47  1  0.187668  0.549973  0.245886  1
  O  O48  1  0.812402  0.549997  0.245878  1
  O  O49  1  0.759789  0.948924  0.212687  1
  O  O50  1  0.240483  0.949030  0.212708  1
  O  O51  1  0.240540  0.550911  0.212710  1
  O  O52  1  0.759779  0.550870  0.212694  1
  O  O53  1  0.747940  0.000000  0.225799  1
  O  O54  1  0.754423  0.873743  0.225010  1
  O  O55  1  0.246104  0.874024  0.225034  1
  O  O56  1  0.246176  0.625967  0.225032  1
  O  O57  1  0.754539  0.626424  0.224992  1
  O  O58  1  0.302064  0.874102  0.306385  1
  O  O59  1  0.697992  0.874112  0.306385  1
  O  O60  1  0.697953  0.625824  0.306381  1
  O  O61  1  0.302035  0.625811  0.306385  1
  O  O62  1  0.589487  0.946940  0.298005  1
  O  O63  1  0.410556  0.946934  0.298003  1
  O  O64  1  0.410545  0.552983  0.298003  1
  O  O65  1  0.589474  0.552991  0.298001  1
  O  O66  1  0.594945  0.948949  0.272239  1
  O  O67  1  0.405113  0.948905  0.272242  1
  O  O68  1  0.405127  0.551018  0.272240  1
  O  O69  1  0.594960  0.550978  0.272238  1
  O  O70  1  0.594903  0.837406  0.230063  1
  O  O71  1  0.405256  0.837349  0.230076  1
  O  O72  1  0.405309  0.662681  0.230078  1
  O  O73  1  0.594985  0.662638  0.230058  1
  O  O74  1  0.725804  0.750050  0.229882  1
  O  O75  1  0.274375  0.749996  0.229875  1
  O  O76  1  0.590807  0.948978  0.208564  1
  O  O77  1  0.409378  0.949190  0.208600  1
  O  O78  1  0.409403  0.550835  0.208598  1
  O  O79  1  0.590835  0.551076  0.208568  1
  O  O80  1  0.500045  0.961476  0.284890  1
  O  O81  1  0.500030  0.538442  0.284888  1
  O  O82  1  0.500071  0.750017  0.223064  1
  O  O83  1  0.499928  0.874950  0.218298  1
  O  O84  1  0.499914  0.625079  0.218300  1
  O  O85  1  -0.000000  0.500162  0.232087  1
  O  O86  1  0.000000  0.000000  0.232091  1
  O  O87  1  0.748080  0.500670  0.225852  1
  O  O88  1  -0.000000  0.000000  0.274734  1
  O  O89  1  0.000000  0.499023  0.274734  1
  O  O90  1  0.500000  0.249971  0.214630  1
  O  O91  1  0.409948  0.345680  0.208117  1
  O  O92  1  0.590012  0.345780  0.208136  1
  O  O93  1  0.589976  0.154077  0.208139  1
  O  O94  1  0.409914  0.154264  0.208117  1
  O  O95  1  0.499598  0.373152  0.220158  1
  O  O96  1  0.499515  0.126835  0.220161  1
  O  O97  1  0.403351  0.057389  0.229551  1
  O  O98  1  0.595943  0.058718  0.229629  1
  O  O99  1  0.596008  0.441328  0.229622  1
  O  O100  1  0.403422  0.442582  0.229550  1
  O  O101  1  0.500087  0.358004  0.285117  1
  O  O102  1  0.500089  0.141921  0.285118  1
  O  O103  1  0.594145  0.342826  0.272773  1
  O  O104  1  0.406025  0.342807  0.272777  1
  O  O105  1  0.406013  0.157112  0.272778  1
  O  O106  1  0.594132  0.157090  0.272773  1
  O  O107  1  0.500042  0.448218  0.275039  1
  O  O108  1  0.500024  0.051703  0.275041  1
  O  O109  1  0.500022  0.448194  0.295061  1
  O  O110  1  0.500024  0.051727  0.295062  1
  O  O111  1  0.410193  0.341466  0.297856  1
  O  O112  1  0.589872  0.341473  0.297858  1
  O  O113  1  0.589864  0.158446  0.297860  1
  O  O114  1  0.410183  0.158449  0.297857  1
  O  O115  1  0.794790  0.053066  0.287028  1
  O  O116  1  0.205288  0.053034  0.287025  1
  O  O117  1  0.205286  0.446893  0.287024  1
  O  O118  1  0.794779  0.446860  0.287025  1
  O  O119  1  0.239855  0.348097  0.212330  1
  O  O120  1  0.760245  0.348085  0.212317  1
  O  O121  1  0.760169  0.151933  0.212327  1
  O  O122  1  0.239819  0.151889  0.212331  1
  O  O123  1  0.312558  0.449974  0.205792  1
  O  O124  1  0.687499  0.449984  0.205782  1
  O  O125  1  0.687722  0.049967  0.205778  1
  O  O126  1  0.312444  0.049998  0.205790  1
  O  O127  1  0.259816  0.449044  0.238972  1
  O  O128  1  0.740522  0.448993  0.238957  1
  O  O129  1  0.740516  0.050783  0.238951  1
  O  O130  1  0.259773  0.050881  0.238972  1
  O  O131  1  0.247953  0.000000  0.225826  1
  O  O132  1  0.248009  0.499457  0.225834  1
  O  O133  1  0.254504  0.373643  0.226666  1
  O  O134  1  0.746148  0.374102  0.226625  1
  O  O135  1  0.746036  0.126068  0.226644  1
  O  O136  1  0.254439  0.126347  0.226668  1
  O  O137  1  0.284373  0.249962  0.270723  1
  O  O138  1  0.715744  0.249952  0.270714  1
  O  O139  1  0.247962  0.373663  0.266373  1
  O  O140  1  0.752175  0.373647  0.266360  1
  O  O141  1  0.752149  0.126256  0.266359  1
  O  O142  1  0.247943  0.126262  0.266373  1
  O  O143  1  0.255390  0.341574  0.280464  1
  O  O144  1  0.744783  0.341557  0.280455  1
  O  O145  1  0.744771  0.158344  0.280454  1
  O  O146  1  0.255376  0.158356  0.280465  1
  O  O147  1  0.238893  0.344632  0.295240  1
  O  O148  1  0.761159  0.344591  0.295235  1
  O  O149  1  0.761144  0.155336  0.295235  1
  O  O150  1  0.238880  0.155291  0.295241  1
  O  O151  1  0.307431  0.249959  0.303477  1
  O  O152  1  0.692622  0.249961  0.303477  1
  O  O153  1  0.701048  0.499968  0.307579  1
  O  O154  1  0.094925  0.337377  0.221605  1
  O  O155  1  0.905276  0.337360  0.221589  1
  O  O156  1  0.905197  0.162662  0.221597  1
  O  O157  1  0.094875  0.162642  0.221604  1
  O  O158  1  0.225770  0.249995  0.221786  1
  O  O159  1  0.774329  0.250047  0.221790  1
  O  O160  1  0.090849  0.448947  0.243095  1
  O  O161  1  0.909420  0.449245  0.243068  1
  O  O162  1  0.909375  0.050799  0.243065  1
  O  O163  1  0.090833  0.051086  0.243095  1
  O  O164  1  0.214825  0.444821  0.253868  1
  O  O165  1  0.785492  0.444788  0.253852  1
  O  O166  1  0.785441  0.055106  0.253850  1
  O  O167  1  0.214811  0.055109  0.253869  1
  O  O168  1  0.094594  0.439718  0.264721  1
  O  O169  1  0.905511  0.439715  0.264717  1
  O  O170  1  0.905493  0.060203  0.264715  1
  O  O171  1  0.094574  0.060202  0.264721  1
  O  O172  1  0.092084  0.346822  0.286336  1
  O  O173  1  0.908018  0.346816  0.286336  1
  O  O174  1  0.908006  0.153114  0.286336  1
  O  O175  1  0.092070  0.153093  0.286336  1
  O  O176  1  0.000000  0.250009  0.228603  1
  O  O177  1  -0.000000  0.374946  0.233367  1
  O  O178  1  0.000000  0.125061  0.233367  1
  O  O179  1  -0.000000  0.371825  0.274430  1
  O  O180  1  -0.000000  0.128091  0.274430  1
  O  O181  1  0.000000  0.249959  0.280120  1
  O  O182  1  0.250856  0.499505  0.266771  1
  O  O183  1  0.749237  0.499483  0.266757  1
  O  O184  1  0.500750  0.499850  0.219572  1
  O  O185  1  0.749237  0.000000  0.266757  1
  O  O186  1  0.250841  0.000000  0.266772  1
  O  O187  1  0.500761  0.000000  0.219574  1
  O  O188  1  0.407454  0.955436  0.122325  1
  O  O189  1  0.592412  0.955411  0.122323  1
  O  O190  1  0.592417  0.544527  0.122322  1
  O  O191  1  0.407457  0.544550  0.122322  1
  O  O192  1  0.499926  0.500913  0.176931  1
  O  O193  1  0.499898  0.000000  0.176930  1
  O  O194  1  0.499867  0.876010  0.113244  1
  O  O195  1  0.499978  0.623943  0.113242  1
  O  O196  1  0.592690  0.838319  0.101404  1
  O  O197  1  0.407115  0.838293  0.101397  1
  O  O198  1  0.407166  0.661642  0.101401  1
  O  O199  1  0.592740  0.661664  0.101395  1
  O  O200  1  0.499925  0.749976  0.108539  1
  O  O201  1  -0.000000  0.858044  0.166548  1
  O  O202  1  0.000000  0.641935  0.166547  1
  O  O203  1  0.094001  0.842861  0.178894  1
  O  O204  1  0.905878  0.842830  0.178885  1
  O  O205  1  0.905901  0.657130  0.178886  1
  O  O206  1  0.094021  0.657107  0.178894  1
  O  O207  1  -0.000000  0.948252  0.176627  1
  O  O208  1  0.000000  0.551718  0.176625  1
  O  O209  1  0.000000  0.948230  0.156604  1
  O  O210  1  -0.000000  0.551745  0.156604  1
  O  O211  1  0.910048  0.841501  0.153812  1
  O  O212  1  0.089726  0.841501  0.153805  1
  O  O213  1  0.089745  0.658461  0.153805  1
  O  O214  1  0.910066  0.658479  0.153810  1
  O  O215  1  0.260798  0.948803  0.131424  1
  O  O216  1  0.739038  0.948845  0.131427  1
  O  O217  1  0.739086  0.551169  0.131420  1
  O  O218  1  0.260838  0.551137  0.131427  1
  O  O219  1  0.294639  0.553082  0.164641  1
  O  O220  1  0.705146  0.553046  0.164637  1
  O  O221  1  0.705155  0.946922  0.164641  1
  O  O222  1  0.294653  0.946891  0.164641  1
  O  O223  1  0.245250  0.949364  0.116456  1
  O  O224  1  0.754667  0.949399  0.116462  1
  O  O225  1  0.754610  0.550595  0.116451  1
  O  O226  1  0.245201  0.550568  0.116461  1
  O  O227  1  0.286644  0.845379  0.090532  1
  O  O228  1  0.713094  0.845545  0.090545  1
  O  O229  1  0.713182  0.654599  0.090529  1
  O  O230  1  0.286738  0.654438  0.090542  1
  O  O231  1  0.239620  0.874574  0.104477  1
  O  O232  1  0.760212  0.874588  0.104487  1
  O  O233  1  0.760246  0.625381  0.104473  1
  O  O234  1  0.239652  0.625365  0.104485  1
  O  O235  1  0.279888  0.749958  0.100449  1
  O  O236  1  0.719963  0.749999  0.100448  1
  O  O237  1  0.784245  0.749971  0.180939  1
  O  O238  1  0.215606  0.749988  0.180953  1
  O  O239  1  0.747807  0.873669  0.185287  1
  O  O240  1  0.252027  0.873685  0.185307  1
  O  O241  1  0.252051  0.626290  0.185307  1
  O  O242  1  0.747842  0.626271  0.185290  1
  O  O243  1  0.755251  0.841577  0.171197  1
  O  O244  1  0.244637  0.841596  0.171212  1
  O  O245  1  0.244659  0.658386  0.171212  1
  O  O246  1  0.755265  0.658354  0.171199  1
  O  O247  1  0.738734  0.844671  0.156421  1
  O  O248  1  0.261003  0.844620  0.156433  1
  O  O249  1  0.261023  0.655354  0.156432  1
  O  O250  1  0.738760  0.655309  0.156423  1
  O  O251  1  0.802004  0.874130  0.142886  1
  O  O252  1  0.197909  0.874131  0.142890  1
  O  O253  1  0.197917  0.625836  0.142890  1
  O  O254  1  0.801993  0.625848  0.142886  1
  O  O255  1  0.807318  0.749988  0.148188  1
  O  O256  1  0.192503  0.749984  0.148189  1
  O  O257  1  0.089398  0.946963  0.134510  1
  O  O258  1  0.910469  0.946968  0.134505  1
  O  O259  1  0.910486  0.553007  0.134507  1
  O  O260  1  0.089415  0.553021  0.134506  1
  O  O261  1  0.201004  0.000000  0.144087  1
  O  O262  1  0.094877  0.948955  0.108743  1
  O  O263  1  0.905044  0.948926  0.108747  1
  O  O264  1  0.904995  0.551011  0.108741  1
  O  O265  1  0.094829  0.551031  0.108746  1
  O  O266  1  0.714769  0.944818  0.197792  1
  O  O267  1  0.285432  0.944820  0.197815  1
  O  O268  1  0.285434  0.555136  0.197814  1
  O  O269  1  0.714803  0.555102  0.197795  1
  O  O270  1  0.594463  0.939744  0.186943  1
  O  O271  1  0.405381  0.939736  0.186947  1
  O  O272  1  0.405393  0.560220  0.186947  1
  O  O273  1  0.594475  0.560222  0.186945  1
  O  O274  1  0.591932  0.846854  0.165327  1
  O  O275  1  0.407866  0.846833  0.165329  1
  O  O276  1  0.407887  0.653118  0.165330  1
  O  O277  1  0.591952  0.653117  0.165328  1
  O  O278  1  0.000000  0.961504  0.121393  1
  O  O279  1  0.000000  0.538469  0.121392  1
  O  O280  1  0.499907  0.871842  0.177234  1
  O  O281  1  0.499929  0.628112  0.177234  1
  O  O282  1  0.499928  0.749978  0.171544  1
  O  O283  1  0.798917  0.000000  0.144086  1
  O  O284  1  0.249113  0.500454  0.184909  1
  O  O285  1  0.750724  0.500426  0.184891  1
  O  O286  1  0.750744  0.000000  0.184891  1
  O  O287  1  0.249121  0.000000  0.184910  1
  O  O288  1  0.407418  0.455440  0.165847  1
  O  O289  1  0.592375  0.455403  0.165845  1
  O  O290  1  0.592383  0.044563  0.165847  1
  O  O291  1  0.407421  0.044544  0.165848  1
  O  O292  1  0.499926  0.000000  0.111239  1
  O  O293  1  0.499926  0.499043  0.111238  1
  O  O294  1  0.499881  0.376008  0.174927  1
  O  O295  1  0.499896  0.123945  0.174930  1
  O  O296  1  0.592678  0.338310  0.186770  1
  O  O297  1  0.407103  0.338306  0.186771  1
  O  O298  1  0.407100  0.161661  0.186773  1
  O  O299  1  0.592674  0.161648  0.186775  1
  O  O300  1  0.499894  0.249974  0.179633  1
  O  O301  1  -0.000000  0.358029  0.121621  1
  O  O302  1  0.000000  0.141944  0.121622  1
  O  O303  1  0.093973  0.342818  0.109282  1
  O  O304  1  0.905853  0.342866  0.109275  1
  O  O305  1  0.905892  0.157146  0.109281  1
  O  O306  1  0.094012  0.157100  0.109277  1
  O  O307  1  0.000000  0.448243  0.111543  1
  O  O308  1  0.000000  0.051723  0.111544  1
  O  O309  1  0.000000  0.448221  0.131565  1
  O  O310  1  0.000000  0.051756  0.131566  1
  O  O311  1  0.910110  0.341502  0.134362  1
  O  O312  1  0.089790  0.341491  0.134360  1
  O  O313  1  0.089771  0.158479  0.134363  1
  O  O314  1  0.910089  0.158476  0.134360  1
  O  O315  1  0.260761  0.448818  0.156748  1
  O  O316  1  0.739000  0.448812  0.156741  1
  O  O317  1  0.739020  0.051158  0.156744  1
  O  O318  1  0.260774  0.051158  0.156749  1
  O  O319  1  0.294657  0.053055  0.123531  1
  O  O320  1  0.705156  0.053083  0.123529  1
  O  O321  1  0.705214  0.446909  0.123528  1
  O  O322  1  0.294702  0.446890  0.123531  1
  O  O323  1  0.245213  0.449421  0.171716  1
  O  O324  1  0.754631  0.449339  0.171706  1
  O  O325  1  0.754623  0.050645  0.171709  1
  O  O326  1  0.245213  0.050547  0.171717  1
  O  O327  1  0.286653  0.345486  0.197632  1
  O  O328  1  0.713100  0.345463  0.197631  1
  O  O329  1  0.713087  0.154554  0.197639  1
  O  O330  1  0.286622  0.154503  0.197633  1
  O  O331  1  0.239607  0.374601  0.183689  1
  O  O332  1  0.760197  0.374562  0.183687  1
  O  O333  1  0.760191  0.125383  0.183695  1
  O  O334  1  0.239607  0.125373  0.183689  1
  O  O335  1  0.279836  0.249988  0.187722  1
  O  O336  1  0.719911  0.249974  0.187723  1
  O  O337  1  0.784253  0.250001  0.107220  1
  O  O338  1  0.215619  0.249962  0.107224  1
  O  O339  1  0.747818  0.373696  0.102862  1
  O  O340  1  0.252028  0.373661  0.102878  1
  O  O341  1  0.252055  0.126265  0.102866  1
  O  O342  1  0.747842  0.126293  0.102876  1
  O  O343  1  0.755211  0.341626  0.116957  1
  O  O344  1  0.244606  0.341559  0.116969  1
  O  O345  1  0.244641  0.158336  0.116962  1
  O  O346  1  0.755251  0.158415  0.116967  1
  O  O347  1  0.738828  0.344627  0.131736  1
  O  O348  1  0.261096  0.344641  0.131746  1
  O  O349  1  0.261054  0.155336  0.131741  1
  O  O350  1  0.738785  0.155330  0.131744  1
  O  O351  1  0.801941  0.374136  0.145278  1
  O  O352  1  0.197871  0.374127  0.145283  1
  O  O353  1  0.197908  0.125838  0.145281  1
  O  O354  1  0.801981  0.125848  0.145281  1
  O  O355  1  0.807337  0.249990  0.139980  1
  O  O356  1  0.192534  0.249983  0.139982  1
  O  O357  1  0.089358  0.446957  0.153661  1
  O  O358  1  0.910427  0.446952  0.153662  1
  O  O359  1  0.910452  0.053032  0.153666  1
  O  O360  1  0.089382  0.053016  0.153661  1
  O  O361  1  0.798869  0.499992  0.144082  1
  O  O362  1  0.094835  0.448959  0.179428  1
  O  O363  1  0.905003  0.448918  0.179423  1
  O  O364  1  0.905004  0.051063  0.179424  1
  O  O365  1  0.094839  0.051005  0.179429  1
  O  O366  1  0.714494  0.444895  0.090357  1
  O  O367  1  0.285150  0.444761  0.090370  1
  O  O368  1  0.285334  0.055066  0.090361  1
  O  O369  1  0.714699  0.055172  0.090370  1
  O  O370  1  0.594451  0.439746  0.101220  1
  O  O371  1  0.405368  0.439734  0.101224  1
  O  O372  1  0.405418  0.060216  0.101222  1
  O  O373  1  0.594501  0.060216  0.101225  1
  O  O374  1  0.591974  0.346851  0.122838  1
  O  O375  1  0.407910  0.346836  0.122841  1
  O  O376  1  0.407892  0.153112  0.122840  1
  O  O377  1  0.591958  0.153140  0.122841  1
  O  O378  1  -0.000000  0.461495  0.166776  1
  O  O379  1  -0.000000  0.038474  0.166778  1
  O  O380  1  0.499929  0.371846  0.110933  1
  O  O381  1  0.499933  0.128111  0.110934  1
  O  O382  1  0.499922  0.249982  0.116624  1
  O  O383  1  0.200967  0.499982  0.144086  1
  O  O384  1  0.249174  0.000000  0.103267  1
  O  O385  1  0.750784  -0.000000  0.103273  1
  O  O386  1  0.750709  0.499532  0.103263  1
  O  O387  1  0.249092  0.499502  0.103273  1
  O  O388  1  0.499883  0.749981  0.073539  1
  O  O389  1  0.409999  0.845740  0.080054  1
  O  O390  1  0.590058  0.845745  0.080035  1
  O  O391  1  0.589814  0.654229  0.080052  1
  O  O392  1  0.409754  0.654172  0.080032  1
  O  O393  1  0.499663  0.873151  0.068012  1
  O  O394  1  0.500175  0.626830  0.068009  1
  O  O395  1  0.403885  0.558548  0.058548  1
  O  O396  1  0.596481  0.557568  0.058610  1
  O  O397  1  0.595945  0.941456  0.058552  1
  O  O398  1  0.403348  0.942409  0.058614  1
  O  O399  1  0.239984  0.847784  0.075829  1
  O  O400  1  0.760350  0.848337  0.075863  1
  O  O401  1  0.759829  0.652181  0.075826  1
  O  O402  1  0.239463  0.651620  0.075861  1
  O  O403  1  0.312250  0.949867  0.082378  1
  O  O404  1  0.687283  0.950075  0.082390  1
  O  O405  1  0.687580  0.550105  0.082376  1
  O  O406  1  0.312453  0.549877  0.082392  1
  O  O407  1  0.259642  0.949027  0.049205  1
  O  O408  1  0.740364  0.949027  0.049207  1
  O  O409  1  0.740195  0.550940  0.049201  1
  O  O410  1  0.259458  0.550878  0.049207  1
  O  O411  1  0.247988  0.998908  0.062384  1
  O  O412  1  0.254654  0.873188  0.061487  1
  O  O413  1  0.746292  0.874485  0.061559  1
  O  O414  1  0.745163  0.626795  0.061483  1
  O  O415  1  0.253517  0.625502  0.061554  1
  O  O416  1  0.095101  0.837191  0.066560  1
  O  O417  1  0.905434  0.837497  0.066588  1
  O  O418  1  0.904713  0.662777  0.066557  1
  O  O419  1  0.094381  0.662480  0.066586  1
  O  O420  1  0.225625  0.749529  0.066382  1
  O  O421  1  0.774193  0.750447  0.066381  1
  O  O422  1  0.090695  0.948859  0.045081  1
  O  O423  1  0.909270  0.949271  0.045098  1
  O  O424  1  0.909146  0.551114  0.045078  1
  O  O425  1  0.090577  0.550717  0.045095  1
  O  O426  1  0.214713  0.944746  0.034306  1
  O  O427  1  0.785389  0.944854  0.034314  1
  O  O428  1  0.785177  0.555180  0.034301  1
  O  O429  1  0.214526  0.555051  0.034313  1
  O  O430  1  0.000000  0.749991  0.059568  1
  O  O431  1  -0.000000  0.874929  0.054805  1
  O  O432  1  0.000000  0.625055  0.054802  1
  O  O433  1  0.499328  0.500143  0.068592  1
  O  O434  1  0.500490  0.000000  0.068596  1
  O  O435  1  0.751835  0.501075  0.062381  1
  O  O436  1  -0.000000  0.249976  0.051133  1
  O  O437  1  0.909770  0.345773  0.044640  1
  O  O438  1  0.089827  0.345721  0.044619  1
  O  O439  1  0.090071  0.154177  0.044641  1
  O  O440  1  0.910012  0.154187  0.044622  1
  O  O441  1  -0.000000  0.373141  0.056661  1
  O  O442  1  0.000000  0.126833  0.056664  1
  O  O443  1  0.903352  0.057592  0.066064  1
  O  O444  1  0.095944  0.058550  0.066126  1
  O  O445  1  0.096482  0.442407  0.066060  1
  O  O446  1  0.903889  0.441434  0.066122  1
  O  O447  1  0.786760  0.345526  0.034129  1
  O  O448  1  0.213210  0.345364  0.034142  1
  O  O449  1  0.213125  0.154420  0.034131  1
  O  O450  1  0.786668  0.154586  0.034144  1
  O  O451  1  0.739476  0.348340  0.048810  1
  O  O452  1  0.259838  0.347786  0.048845  1
  O  O453  1  0.260357  0.151615  0.048813  1
  O  O454  1  0.739996  0.152172  0.048847  1
  O  O455  1  0.812499  0.450081  0.042281  1
  O  O456  1  0.187561  0.449857  0.042296  1
  O  O457  1  0.187363  0.049870  0.042282  1
  O  O458  1  0.812195  0.050080  0.042295  1
  O  O459  1  0.759458  0.449077  0.075464  1
  O  O460  1  0.240184  0.449017  0.075470  1
  O  O461  1  0.240368  0.050901  0.075468  1
  O  O462  1  0.759624  0.050903  0.075469  1
  O  O463  1  0.748056  0.001092  0.062283  1
  O  O464  1  0.251851  0.498912  0.062293  1
  O  O465  1  0.753527  0.374479  0.063116  1
  O  O466  1  0.245172  0.373189  0.063187  1
  O  O467  1  0.246308  0.125503  0.063119  1
  O  O468  1  0.754655  0.126802  0.063191  1
  O  O469  1  0.594389  0.337499  0.058085  1
  O  O470  1  0.404721  0.337193  0.058114  1
  O  O471  1  0.405440  0.162483  0.058087  1
  O  O472  1  0.595109  0.162779  0.058116  1
  O  O473  1  0.725629  0.250447  0.058291  1
  O  O474  1  0.274194  0.249530  0.058292  1
  O  O475  1  0.590566  0.449265  0.079575  1
  O  O476  1  0.409136  0.448867  0.079594  1
  O  O477  1  0.409254  0.050721  0.079579  1
  O  O478  1  0.590687  0.051132  0.079595  1
  O  O479  1  0.499917  0.249994  0.065105  1
  O  O480  1  0.499794  0.374929  0.069869  1
  O  O481  1  0.500014  0.125063  0.069872  1
  O  O482  1  0.000000  0.000000  0.056082  1
  O  O483  1  -0.000000  0.499835  0.056078  1
  O  O484  1  0.907537  0.955410  0.612812  1
  O  O485  1  0.092495  0.955406  0.612812  1
  O  O486  1  0.092507  0.544534  0.612810  1
  O  O487  1  0.907545  0.544507  0.612811  1
  O  O488  1  -0.000000  0.875991  0.603733  1
  O  O489  1  0.000000  0.623923  0.603730  1
  O  O490  1  0.092782  0.838295  0.591888  1
  O  O491  1  0.907206  0.838280  0.591890  1
  O  O492  1  0.907212  0.661641  0.591885  1
  O  O493  1  0.092790  0.661629  0.591887  1
  O  O494  1  -0.000000  0.749954  0.599027  1
  O  O495  1  -0.000000  0.749964  0.564028  1
  O  O496  1  0.909978  0.845628  0.570545  1
  O  O497  1  0.090041  0.845801  0.570520  1
  O  O498  1  0.090071  0.654124  0.570520  1
  O  O499  1  0.910011  0.654218  0.570541  1
  O  O500  1  -0.000000  0.873132  0.558500  1
  O  O501  1  -0.000000  0.626833  0.558497  1
  O  O502  1  0.903425  0.557445  0.549102  1
  O  O503  1  0.096021  0.558717  0.549030  1
  O  O504  1  0.095947  0.941251  0.549031  1
  O  O505  1  0.903359  0.942594  0.549109  1
  O  O506  1  0.760890  0.948802  0.621913  1
  O  O507  1  0.239132  0.948796  0.621915  1
  O  O508  1  0.239133  0.551131  0.621914  1
  O  O509  1  0.760882  0.551127  0.621910  1
  O  O510  1  0.745314  0.949430  0.606945  1
  O  O511  1  0.254733  0.949318  0.606949  1
  O  O512  1  0.254750  0.550606  0.606947  1
  O  O513  1  0.745341  0.550513  0.606941  1
  O  O514  1  0.786715  0.845482  0.581033  1
  O  O515  1  0.213151  0.845428  0.581023  1
  O  O516  1  0.213179  0.654537  0.581022  1
  O  O517  1  0.786719  0.654502  0.581025  1
  O  O518  1  0.739718  0.874570  0.594977  1
  O  O519  1  0.260310  0.874560  0.594966  1
  O  O520  1  0.260323  0.625369  0.594965  1
  O  O521  1  0.739726  0.625336  0.594969  1
  O  O522  1  0.779935  0.749957  0.590939  1
  O  O523  1  0.220018  0.749968  0.590936  1
  O  O524  1  0.739843  0.848103  0.566335  1
  O  O525  1  0.260240  0.848071  0.566337  1
  O  O526  1  0.260272  0.651915  0.566337  1
  O  O527  1  0.739921  0.651912  0.566325  1
  O  O528  1  0.812621  0.949935  0.572868  1
  O  O529  1  0.187522  0.949988  0.572877  1
  O  O530  1  0.187668  0.549973  0.572879  1
  O  O531  1  0.812402  0.549997  0.572871  1
  O  O532  1  0.759789  0.948924  0.539680  1
  O  O533  1  0.240483  0.949030  0.539701  1
  O  O534  1  0.240540  0.550911  0.539702  1
  O  O535  1  0.759779  0.550870  0.539687  1
  O  O536  1  0.747940  0.000000  0.552791  1
  O  O537  1  0.754423  0.873743  0.552003  1
  O  O538  1  0.246104  0.874024  0.552026  1
  O  O539  1  0.246176  0.625967  0.552024  1
  O  O540  1  0.754539  0.626424  0.551984  1
  O  O541  1  0.302064  0.874102  0.633377  1
  O  O542  1  0.697992  0.874112  0.633378  1
  O  O543  1  0.697953  0.625824  0.633374  1
  O  O544  1  0.302035  0.625811  0.633378  1
  O  O545  1  0.589487  0.946940  0.624998  1
  O  O546  1  0.410556  0.946934  0.624995  1
  O  O547  1  0.410545  0.552983  0.624996  1
  O  O548  1  0.589474  0.552991  0.624994  1
  O  O549  1  0.594945  0.948949  0.599232  1
  O  O550  1  0.405113  0.948905  0.599235  1
  O  O551  1  0.405127  0.551018  0.599233  1
  O  O552  1  0.594960  0.550978  0.599230  1
  O  O553  1  0.594903  0.837406  0.557056  1
  O  O554  1  0.405256  0.837349  0.557069  1
  O  O555  1  0.405309  0.662681  0.557071  1
  O  O556  1  0.594985  0.662638  0.557050  1
  O  O557  1  0.725804  0.750050  0.556875  1
  O  O558  1  0.274375  0.749996  0.556868  1
  O  O559  1  0.590807  0.948978  0.535557  1
  O  O560  1  0.409378  0.949190  0.535593  1
  O  O561  1  0.409403  0.550835  0.535590  1
  O  O562  1  0.590835  0.551076  0.535561  1
  O  O563  1  0.500045  0.961476  0.611882  1
  O  O564  1  0.500030  0.538442  0.611881  1
  O  O565  1  0.500071  0.750017  0.550057  1
  O  O566  1  0.499928  0.874950  0.545291  1
  O  O567  1  0.499914  0.625079  0.545292  1
  O  O568  1  -0.000000  0.500162  0.559080  1
  O  O569  1  0.000000  0.000000  0.559083  1
  O  O570  1  0.748080  0.500670  0.552844  1
  O  O571  1  0.000000  0.000000  0.601726  1
  O  O572  1  -0.000000  0.499023  0.601727  1
  O  O573  1  0.500000  0.249971  0.541623  1
  O  O574  1  0.409948  0.345680  0.535109  1
  O  O575  1  0.590012  0.345780  0.535128  1
  O  O576  1  0.589976  0.154077  0.535132  1
  O  O577  1  0.409914  0.154264  0.535110  1
  O  O578  1  0.499598  0.373152  0.547150  1
  O  O579  1  0.499515  0.126835  0.547153  1
  O  O580  1  0.403351  0.057389  0.556544  1
  O  O581  1  0.595943  0.058718  0.556622  1
  O  O582  1  0.596008  0.441328  0.556615  1
  O  O583  1  0.403422  0.442582  0.556542  1
  O  O584  1  0.500087  0.358004  0.612110  1
  O  O585  1  0.500089  0.141921  0.612111  1
  O  O586  1  0.594145  0.342826  0.599765  1
  O  O587  1  0.406025  0.342807  0.599770  1
  O  O588  1  0.406013  0.157112  0.599770  1
  O  O589  1  0.594132  0.157090  0.599765  1
  O  O590  1  0.500042  0.448218  0.602032  1
  O  O591  1  0.500024  0.051703  0.602034  1
  O  O592  1  0.500022  0.448194  0.622054  1
  O  O593  1  0.500024  0.051727  0.622054  1
  O  O594  1  0.410193  0.341466  0.624849  1
  O  O595  1  0.589872  0.341473  0.624850  1
  O  O596  1  0.589864  0.158446  0.624852  1
  O  O597  1  0.410183  0.158449  0.624849  1
  O  O598  1  0.794790  0.053066  0.614021  1
  O  O599  1  0.205288  0.053034  0.614018  1
  O  O600  1  0.205286  0.446893  0.614017  1
  O  O601  1  0.794779  0.446860  0.614018  1
  O  O602  1  0.239855  0.348097  0.539323  1
  O  O603  1  0.760245  0.348085  0.539309  1
  O  O604  1  0.760169  0.151933  0.539320  1
  O  O605  1  0.239819  0.151889  0.539324  1
  O  O606  1  0.312558  0.449974  0.532784  1
  O  O607  1  0.687499  0.449984  0.532775  1
  O  O608  1  0.687722  0.049967  0.532771  1
  O  O609  1  0.312444  0.049998  0.532783  1
  O  O610  1  0.259816  0.449044  0.565965  1
  O  O611  1  0.740522  0.448993  0.565950  1
  O  O612  1  0.740516  0.050783  0.565944  1
  O  O613  1  0.259773  0.050881  0.565964  1
  O  O614  1  0.247953  0.000000  0.552819  1
  O  O615  1  0.248009  0.499457  0.552827  1
  O  O616  1  0.254504  0.373643  0.553659  1
  O  O617  1  0.746148  0.374102  0.553618  1
  O  O618  1  0.746036  0.126068  0.553637  1
  O  O619  1  0.254439  0.126347  0.553661  1
  O  O620  1  0.284373  0.249962  0.597715  1
  O  O621  1  0.715744  0.249952  0.597706  1
  O  O622  1  0.247962  0.373663  0.593365  1
  O  O623  1  0.752175  0.373647  0.593353  1
  O  O624  1  0.752149  0.126256  0.593352  1
  O  O625  1  0.247943  0.126262  0.593366  1
  O  O626  1  0.255390  0.341574  0.607457  1
  O  O627  1  0.744783  0.341557  0.607448  1
  O  O628  1  0.744771  0.158344  0.607447  1
  O  O629  1  0.255376  0.158356  0.607458  1
  O  O630  1  0.238893  0.344632  0.622233  1
  O  O631  1  0.761159  0.344591  0.622227  1
  O  O632  1  0.761144  0.155336  0.622228  1
  O  O633  1  0.238880  0.155291  0.622234  1
  O  O634  1  0.307431  0.249959  0.630470  1
  O  O635  1  0.692622  0.249961  0.630470  1
  O  O636  1  0.701048  0.499968  0.634571  1
  O  O637  1  0.094925  0.337377  0.548598  1
  O  O638  1  0.905276  0.337360  0.548581  1
  O  O639  1  0.905197  0.162662  0.548589  1
  O  O640  1  0.094875  0.162642  0.548596  1
  O  O641  1  0.225770  0.249995  0.548779  1
  O  O642  1  0.774329  0.250047  0.548783  1
  O  O643  1  0.090849  0.448947  0.570087  1
  O  O644  1  0.909420  0.449245  0.570061  1
  O  O645  1  0.909375  0.050799  0.570058  1
  O  O646  1  0.090833  0.051086  0.570088  1
  O  O647  1  0.214825  0.444821  0.580861  1
  O  O648  1  0.785492  0.444788  0.580845  1
  O  O649  1  0.785441  0.055106  0.580843  1
  O  O650  1  0.214811  0.055109  0.580862  1
  O  O651  1  0.094594  0.439718  0.591714  1
  O  O652  1  0.905511  0.439715  0.591709  1
  O  O653  1  0.905493  0.060203  0.591707  1
  O  O654  1  0.094574  0.060202  0.591714  1
  O  O655  1  0.092084  0.346822  0.613329  1
  O  O656  1  0.908018  0.346816  0.613329  1
  O  O657  1  0.908006  0.153114  0.613329  1
  O  O658  1  0.092070  0.153093  0.613329  1
  O  O659  1  -0.000000  0.250009  0.555596  1
  O  O660  1  -0.000000  0.374946  0.560359  1
  O  O661  1  -0.000000  0.125061  0.560359  1
  O  O662  1  0.000000  0.371825  0.601423  1
  O  O663  1  0.000000  0.128091  0.601422  1
  O  O664  1  0.000000  0.249959  0.607112  1
  O  O665  1  0.250856  0.499505  0.593764  1
  O  O666  1  0.749237  0.499483  0.593749  1
  O  O667  1  0.500750  0.499850  0.546565  1
  O  O668  1  0.749237  0.000000  0.593750  1
  O  O669  1  0.250841  0.000000  0.593765  1
  O  O670  1  0.500761  0.000000  0.546567  1
  O  O671  1  0.407454  0.955436  0.449318  1
  O  O672  1  0.592412  0.955411  0.449316  1
  O  O673  1  0.592417  0.544527  0.449315  1
  O  O674  1  0.407457  0.544550  0.449315  1
  O  O675  1  0.499926  0.500913  0.503924  1
  O  O676  1  0.499898  0.000000  0.503923  1
  O  O677  1  0.499867  0.876010  0.440237  1
  O  O678  1  0.499978  0.623943  0.440234  1
  O  O679  1  0.592690  0.838319  0.428396  1
  O  O680  1  0.407115  0.838293  0.428389  1
  O  O681  1  0.407166  0.661642  0.428394  1
  O  O682  1  0.592740  0.661664  0.428388  1
  O  O683  1  0.499925  0.749976  0.435531  1
  O  O684  1  0.000000  0.858044  0.493541  1
  O  O685  1  0.000000  0.641935  0.493540  1
  O  O686  1  0.094001  0.842861  0.505887  1
  O  O687  1  0.905878  0.842830  0.505878  1
  O  O688  1  0.905901  0.657130  0.505879  1
  O  O689  1  0.094021  0.657107  0.505886  1
  O  O690  1  0.000000  0.948252  0.503620  1
  O  O691  1  -0.000000  0.551718  0.503618  1
  O  O692  1  -0.000000  0.948230  0.483597  1
  O  O693  1  -0.000000  0.551745  0.483596  1
  O  O694  1  0.910048  0.841501  0.480805  1
  O  O695  1  0.089726  0.841501  0.480798  1
  O  O696  1  0.089745  0.658461  0.480798  1
  O  O697  1  0.910066  0.658479  0.480803  1
  O  O698  1  0.260798  0.948803  0.458417  1
  O  O699  1  0.739038  0.948845  0.458419  1
  O  O700  1  0.739086  0.551169  0.458413  1
  O  O701  1  0.260838  0.551137  0.458420  1
  O  O702  1  0.294639  0.553082  0.491634  1
  O  O703  1  0.705146  0.553046  0.491630  1
  O  O704  1  0.705155  0.946922  0.491633  1
  O  O705  1  0.294653  0.946891  0.491634  1
  O  O706  1  0.245250  0.949364  0.443448  1
  O  O707  1  0.754667  0.949399  0.443454  1
  O  O708  1  0.754610  0.550595  0.443444  1
  O  O709  1  0.245201  0.550568  0.443454  1
  O  O710  1  0.286644  0.845379  0.417525  1
  O  O711  1  0.713094  0.845545  0.417537  1
  O  O712  1  0.713182  0.654599  0.417522  1
  O  O713  1  0.286738  0.654438  0.417535  1
  O  O714  1  0.239620  0.874574  0.431470  1
  O  O715  1  0.760212  0.874588  0.431480  1
  O  O716  1  0.760246  0.625381  0.431465  1
  O  O717  1  0.239652  0.625365  0.431478  1
  O  O718  1  0.279888  0.749958  0.427441  1
  O  O719  1  0.719963  0.749999  0.427441  1
  O  O720  1  0.784245  0.749971  0.507932  1
  O  O721  1  0.215606  0.749988  0.507946  1
  O  O722  1  0.747807  0.873669  0.512280  1
  O  O723  1  0.252027  0.873685  0.512300  1
  O  O724  1  0.252051  0.626290  0.512299  1
  O  O725  1  0.747842  0.626271  0.512283  1
  O  O726  1  0.755251  0.841577  0.498189  1
  O  O727  1  0.244637  0.841596  0.498205  1
  O  O728  1  0.244659  0.658386  0.498205  1
  O  O729  1  0.755265  0.658354  0.498191  1
  O  O730  1  0.738734  0.844671  0.483414  1
  O  O731  1  0.261003  0.844620  0.483425  1
  O  O732  1  0.261023  0.655354  0.483425  1
  O  O733  1  0.738760  0.655309  0.483415  1
  O  O734  1  0.802004  0.874130  0.469879  1
  O  O735  1  0.197909  0.874131  0.469883  1
  O  O736  1  0.197917  0.625836  0.469883  1
  O  O737  1  0.801993  0.625848  0.469878  1
  O  O738  1  0.807318  0.749988  0.475181  1
  O  O739  1  0.192503  0.749984  0.475182  1
  O  O740  1  0.089398  0.946963  0.461503  1
  O  O741  1  0.910469  0.946968  0.461498  1
  O  O742  1  0.910486  0.553007  0.461500  1
  O  O743  1  0.089415  0.553021  0.461498  1
  O  O744  1  0.201004  0.000000  0.471079  1
  O  O745  1  0.094877  0.948955  0.435735  1
  O  O746  1  0.905044  0.948926  0.435740  1
  O  O747  1  0.904995  0.551011  0.435734  1
  O  O748  1  0.094829  0.551031  0.435738  1
  O  O749  1  0.714769  0.944818  0.524785  1
  O  O750  1  0.285432  0.944820  0.524807  1
  O  O751  1  0.285434  0.555136  0.524806  1
  O  O752  1  0.714803  0.555102  0.524787  1
  O  O753  1  0.594463  0.939744  0.513935  1
  O  O754  1  0.405381  0.939736  0.513940  1
  O  O755  1  0.405393  0.560220  0.513940  1
  O  O756  1  0.594475  0.560222  0.513938  1
  O  O757  1  0.591932  0.846854  0.492320  1
  O  O758  1  0.407866  0.846833  0.492322  1
  O  O759  1  0.407887  0.653118  0.492322  1
  O  O760  1  0.591952  0.653117  0.492320  1
  O  O761  1  -0.000000  0.961504  0.448386  1
  O  O762  1  0.000000  0.538469  0.448385  1
  O  O763  1  0.499907  0.871842  0.504227  1
  O  O764  1  0.499929  0.628112  0.504227  1
  O  O765  1  0.499928  0.749978  0.498537  1
  O  O766  1  0.798917  -0.000000  0.471079  1
  O  O767  1  0.249113  0.500454  0.511901  1
  O  O768  1  0.750724  0.500426  0.511884  1
  O  O769  1  0.750744  0.000000  0.511883  1
  O  O770  1  0.249121  0.000000  0.511903  1
  O  O771  1  0.407418  0.455440  0.492840  1
  O  O772  1  0.592375  0.455403  0.492838  1
  O  O773  1  0.592383  0.044563  0.492840  1
  O  O774  1  0.407421  0.044544  0.492841  1
  O  O775  1  0.499926  0.000000  0.438232  1
  O  O776  1  0.499926  0.499043  0.438231  1
  O  O777  1  0.499881  0.376008  0.501919  1
  O  O778  1  0.499896  0.123945  0.501923  1
  O  O779  1  0.592678  0.338310  0.513762  1
  O  O780  1  0.407103  0.338306  0.513764  1
  O  O781  1  0.407100  0.161661  0.513766  1
  O  O782  1  0.592674  0.161648  0.513767  1
  O  O783  1  0.499894  0.249974  0.506625  1
  O  O784  1  0.000000  0.358029  0.448614  1
  O  O785  1  -0.000000  0.141944  0.448614  1
  O  O786  1  0.093973  0.342818  0.436275  1
  O  O787  1  0.905853  0.342866  0.436268  1
  O  O788  1  0.905892  0.157146  0.436274  1
  O  O789  1  0.094012  0.157100  0.436270  1
  O  O790  1  -0.000000  0.448243  0.438536  1
  O  O791  1  0.000000  0.051723  0.438537  1
  O  O792  1  0.000000  0.448221  0.458558  1
  O  O793  1  -0.000000  0.051756  0.458558  1
  O  O794  1  0.910110  0.341502  0.461355  1
  O  O795  1  0.089790  0.341491  0.461352  1
  O  O796  1  0.089771  0.158479  0.461355  1
  O  O797  1  0.910089  0.158476  0.461353  1
  O  O798  1  0.260761  0.448818  0.483741  1
  O  O799  1  0.739000  0.448812  0.483733  1
  O  O800  1  0.739020  0.051158  0.483736  1
  O  O801  1  0.260774  0.051158  0.483741  1
  O  O802  1  0.294657  0.053055  0.450524  1
  O  O803  1  0.705156  0.053083  0.450522  1
  O  O804  1  0.705214  0.446909  0.450520  1
  O  O805  1  0.294702  0.446890  0.450524  1
  O  O806  1  0.245213  0.449421  0.498709  1
  O  O807  1  0.754631  0.449339  0.498699  1
  O  O808  1  0.754623  0.050645  0.498702  1
  O  O809  1  0.245213  0.050547  0.498710  1
  O  O810  1  0.286653  0.345486  0.524625  1
  O  O811  1  0.713100  0.345463  0.524624  1
  O  O812  1  0.713087  0.154554  0.524632  1
  O  O813  1  0.286622  0.154503  0.524625  1
  O  O814  1  0.239607  0.374601  0.510682  1
  O  O815  1  0.760197  0.374562  0.510679  1
  O  O816  1  0.760191  0.125383  0.510687  1
  O  O817  1  0.239607  0.125373  0.510682  1
  O  O818  1  0.279836  0.249988  0.514715  1
  O  O819  1  0.719911  0.249974  0.514716  1
  O  O820  1  0.784253  0.250001  0.434213  1
  O  O821  1  0.215619  0.249962  0.434216  1
  O  O822  1  0.747818  0.373696  0.429855  1
  O  O823  1  0.252028  0.373661  0.429871  1
  O  O824  1  0.252055  0.126265  0.429859  1
  O  O825  1  0.747842  0.126293  0.429869  1
  O  O826  1  0.755211  0.341626  0.443950  1
  O  O827  1  0.244606  0.341559  0.443962  1
  O  O828  1  0.244641  0.158336  0.443954  1
  O  O829  1  0.755251  0.158415  0.443960  1
  O  O830  1  0.738828  0.344627  0.458729  1
  O  O831  1  0.261096  0.344641  0.458738  1
  O  O832  1  0.261054  0.155336  0.458733  1
  O  O833  1  0.738785  0.155330  0.458736  1
  O  O834  1  0.801941  0.374136  0.472271  1
  O  O835  1  0.197871  0.374127  0.472276  1
  O  O836  1  0.197908  0.125838  0.472274  1
  O  O837  1  0.801981  0.125848  0.472274  1
  O  O838  1  0.807337  0.249990  0.466973  1
  O  O839  1  0.192534  0.249983  0.466975  1
  O  O840  1  0.089358  0.446957  0.480654  1
  O  O841  1  0.910427  0.446952  0.480655  1
  O  O842  1  0.910452  0.053032  0.480659  1
  O  O843  1  0.089382  0.053016  0.480654  1
  O  O844  1  0.798869  0.499992  0.471075  1
  O  O845  1  0.094835  0.448959  0.506420  1
  O  O846  1  0.905003  0.448918  0.506415  1
  O  O847  1  0.905004  0.051063  0.506416  1
  O  O848  1  0.094839  0.051005  0.506422  1
  O  O849  1  0.714494  0.444895  0.417350  1
  O  O850  1  0.285150  0.444761  0.417363  1
  O  O851  1  0.285334  0.055066  0.417354  1
  O  O852  1  0.714699  0.055172  0.417363  1
  O  O853  1  0.594451  0.439746  0.428213  1
  O  O854  1  0.405368  0.439734  0.428217  1
  O  O855  1  0.405418  0.060216  0.428214  1
  O  O856  1  0.594501  0.060216  0.428218  1
  O  O857  1  0.591974  0.346851  0.449831  1
  O  O858  1  0.407910  0.346836  0.449834  1
  O  O859  1  0.407892  0.153112  0.449833  1
  O  O860  1  0.591958  0.153140  0.449833  1
  O  O861  1  0.000000  0.461495  0.493769  1
  O  O862  1  0.000000  0.038474  0.493770  1
  O  O863  1  0.499929  0.371846  0.437926  1
  O  O864  1  0.499933  0.128111  0.437927  1
  O  O865  1  0.499922  0.249982  0.443616  1
  O  O866  1  0.200967  0.499982  0.471079  1
  O  O867  1  0.249174  0.000000  0.430259  1
  O  O868  1  0.750784  0.000000  0.430266  1
  O  O869  1  0.750709  0.499532  0.430255  1
  O  O870  1  0.249092  0.499502  0.430266  1
  O  O871  1  -0.000000  0.500884  0.340426  1
  O  O872  1  0.000000  0.000000  0.340428  1
  O  O873  1  0.499883  0.749981  0.400532  1
  O  O874  1  0.409999  0.845740  0.407047  1
  O  O875  1  0.590058  0.845745  0.407027  1
  O  O876  1  0.589814  0.654229  0.407045  1
  O  O877  1  0.409754  0.654172  0.407024  1
  O  O878  1  0.499663  0.873151  0.395005  1
  O  O879  1  0.500175  0.626830  0.395002  1
  O  O880  1  0.403885  0.558548  0.385541  1
  O  O881  1  0.596481  0.557568  0.385602  1
  O  O882  1  0.595945  0.941456  0.385545  1
  O  O883  1  0.403348  0.942409  0.385607  1
  O  O884  1  0.500030  0.858002  0.330044  1
  O  O885  1  0.499951  0.641911  0.330043  1
  O  O886  1  0.594064  0.842844  0.342389  1
  O  O887  1  0.405945  0.842785  0.342384  1
  O  O888  1  0.405895  0.657076  0.342388  1
  O  O889  1  0.594016  0.657116  0.342383  1
  O  O890  1  0.499964  0.948214  0.340122  1
  O  O891  1  0.499968  0.551695  0.340121  1
  O  O892  1  0.500008  0.948197  0.320101  1
  O  O893  1  0.500014  0.551723  0.320099  1
  O  O894  1  0.410152  0.841471  0.317306  1
  O  O895  1  0.589831  0.841473  0.317302  1
  O  O896  1  0.589842  0.658452  0.317304  1
  O  O897  1  0.410162  0.658444  0.317302  1
  O  O898  1  0.794758  0.553053  0.328135  1
  O  O899  1  0.205253  0.553024  0.328136  1
  O  O900  1  0.205216  0.946869  0.328136  1
  O  O901  1  0.794709  0.946883  0.328137  1
  O  O902  1  0.239984  0.847784  0.402822  1
  O  O903  1  0.760350  0.848337  0.402856  1
  O  O904  1  0.759829  0.652181  0.402819  1
  O  O905  1  0.239463  0.651620  0.402854  1
  O  O906  1  0.312250  0.949867  0.409370  1
  O  O907  1  0.687283  0.950075  0.409383  1
  O  O908  1  0.687580  0.550105  0.409369  1
  O  O909  1  0.312453  0.549877  0.409385  1
  O  O910  1  0.259642  0.949027  0.376197  1
  O  O911  1  0.740364  0.949027  0.376200  1
  O  O912  1  0.740195  0.550940  0.376194  1
  O  O913  1  0.259458  0.550878  0.376200  1
  O  O914  1  0.247988  0.998908  0.389377  1
  O  O915  1  0.254654  0.873188  0.388480  1
  O  O916  1  0.746292  0.874485  0.388552  1
  O  O917  1  0.745163  0.626795  0.388476  1
  O  O918  1  0.253517  0.625502  0.388547  1
  O  O919  1  0.284289  0.749935  0.344443  1
  O  O920  1  0.715656  0.749975  0.344443  1
  O  O921  1  0.247899  0.873632  0.348791  1
  O  O922  1  0.752103  0.873666  0.348801  1
  O  O923  1  0.752074  0.626272  0.348786  1
  O  O924  1  0.247860  0.626239  0.348801  1
  O  O925  1  0.255303  0.841544  0.334699  1
  O  O926  1  0.744702  0.841600  0.334706  1
  O  O927  1  0.744650  0.658387  0.334696  1
  O  O928  1  0.255259  0.658310  0.334705  1
  O  O929  1  0.238848  0.844616  0.319922  1
  O  O930  1  0.761111  0.844603  0.319927  1
  O  O931  1  0.761143  0.655299  0.319919  1
  O  O932  1  0.238877  0.655302  0.319926  1
  O  O933  1  0.307399  0.749956  0.311685  1
  O  O934  1  0.692596  0.749966  0.311683  1
  O  O935  1  0.701086  0.000000  0.307583  1
  O  O936  1  0.298986  0.000000  0.307582  1
  O  O937  1  0.095101  0.837191  0.393552  1
  O  O938  1  0.905434  0.837497  0.393581  1
  O  O939  1  0.904713  0.662777  0.393549  1
  O  O940  1  0.094381  0.662480  0.393579  1
  O  O941  1  0.225625  0.749529  0.393375  1
  O  O942  1  0.774193  0.750447  0.393374  1
  O  O943  1  0.090695  0.948859  0.372073  1
  O  O944  1  0.909270  0.949271  0.372091  1
  O  O945  1  0.909146  0.551114  0.372071  1
  O  O946  1  0.090577  0.550717  0.372088  1
  O  O947  1  0.214713  0.944746  0.361298  1
  O  O948  1  0.785389  0.944854  0.361307  1
  O  O949  1  0.785177  0.555180  0.361294  1
  O  O950  1  0.214526  0.555051  0.361306  1
  O  O951  1  0.094551  0.939701  0.350442  1
  O  O952  1  0.905470  0.939710  0.350445  1
  O  O953  1  0.905411  0.560197  0.350440  1
  O  O954  1  0.094493  0.560192  0.350443  1
  O  O955  1  0.092017  0.846809  0.328825  1
  O  O956  1  0.907952  0.846827  0.328826  1
  O  O957  1  0.907957  0.653111  0.328824  1
  O  O958  1  0.092023  0.653083  0.328825  1
  O  O959  1  0.000000  0.749991  0.386561  1
  O  O960  1  0.000000  0.874929  0.381798  1
  O  O961  1  0.000000  0.625055  0.381795  1
  O  O962  1  0.000000  0.871815  0.340732  1
  O  O963  1  -0.000000  0.628084  0.340730  1
  O  O964  1  0.000000  0.749953  0.335041  1
  O  O965  1  0.499328  0.500143  0.395585  1
  O  O966  1  0.500490  0.000000  0.395588  1
  O  O967  1  0.751835  0.501075  0.389374  1
  O  O968  1  0.749130  0.500430  0.348392  1
  O  O969  1  0.250747  0.500401  0.348401  1
  O  O970  1  0.250829  0.000000  0.348395  1
  O  O971  1  0.749222  0.000000  0.348402  1
  O  O972  1  0.907501  0.455383  0.329343  1
  O  O973  1  0.092460  0.455399  0.329342  1
  O  O974  1  0.092469  0.044534  0.329345  1
  O  O975  1  0.907510  0.044495  0.329344  1
  O  O976  1  0.000000  0.375981  0.338423  1
  O  O977  1  -0.000000  0.123916  0.338425  1
  O  O978  1  0.092774  0.338270  0.350269  1
  O  O979  1  0.907199  0.338294  0.350264  1
  O  O980  1  0.907149  0.161640  0.350272  1
  O  O981  1  0.092728  0.161617  0.350265  1
  O  O982  1  -0.000000  0.249949  0.343128  1
  O  O983  1  -0.000000  0.249976  0.378125  1
  O  O984  1  0.909770  0.345773  0.371632  1
  O  O985  1  0.089827  0.345721  0.371611  1
  O  O986  1  0.090071  0.154177  0.371633  1
  O  O987  1  0.910012  0.154187  0.371614  1
  O  O988  1  0.000000  0.373141  0.383654  1
  O  O989  1  -0.000000  0.126833  0.383656  1
  O  O990  1  0.903352  0.057592  0.393057  1
  O  O991  1  0.095944  0.058550  0.393119  1
  O  O992  1  0.096482  0.442407  0.393053  1
  O  O993  1  0.903889  0.441434  0.393114  1
  O  O994  1  0.760889  0.448810  0.320238  1
  O  O995  1  0.239134  0.448772  0.320243  1
  O  O996  1  0.239107  0.051120  0.320241  1
  O  O997  1  0.760856  0.051145  0.320245  1
  O  O998  1  0.745238  0.449374  0.335203  1
  O  O999  1  0.254651  0.449339  0.335212  1
  O  O1000  1  0.254714  0.050539  0.335207  1
  O  O1001  1  0.745308  0.050568  0.335214  1
  O  O1002  1  0.786760  0.345526  0.361121  1
  O  O1003  1  0.213210  0.345364  0.361134  1
  O  O1004  1  0.213125  0.154420  0.361124  1
  O  O1005  1  0.786668  0.154586  0.361136  1
  O  O1006  1  0.739688  0.374566  0.347178  1
  O  O1007  1  0.260277  0.374552  0.347191  1
  O  O1008  1  0.260253  0.125339  0.347182  1
  O  O1009  1  0.739655  0.125354  0.347193  1
  O  O1010  1  0.779922  0.249978  0.351218  1
  O  O1011  1  0.220001  0.249937  0.351218  1
  O  O1012  1  0.739476  0.348340  0.375803  1
  O  O1013  1  0.259838  0.347786  0.375838  1
  O  O1014  1  0.260357  0.151615  0.375805  1
  O  O1015  1  0.739996  0.152172  0.375840  1
  O  O1016  1  0.812499  0.450081  0.369274  1
  O  O1017  1  0.187561  0.449857  0.369289  1
  O  O1018  1  0.187363  0.049870  0.369274  1
  O  O1019  1  0.812195  0.050080  0.369288  1
  O  O1020  1  0.759458  0.449077  0.402457  1
  O  O1021  1  0.240184  0.449017  0.402463  1
  O  O1022  1  0.240368  0.050901  0.402460  1
  O  O1023  1  0.759624  0.050903  0.402462  1
  O  O1024  1  0.748056  0.001092  0.389276  1
  O  O1025  1  0.251851  0.498912  0.389286  1
  O  O1026  1  0.753527  0.374479  0.390108  1
  O  O1027  1  0.245172  0.373189  0.390180  1
  O  O1028  1  0.246308  0.125503  0.390112  1
  O  O1029  1  0.754655  0.126802  0.390184  1
  O  O1030  1  0.302075  0.374099  0.308778  1
  O  O1031  1  0.697999  0.374113  0.308775  1
  O  O1032  1  0.698011  0.125813  0.308777  1
  O  O1033  1  0.302079  0.125817  0.308779  1
  O  O1034  1  0.589471  0.446926  0.317158  1
  O  O1035  1  0.410541  0.446939  0.317157  1
  O  O1036  1  0.410535  0.052988  0.317162  1
  O  O1037  1  0.589463  0.052994  0.317157  1
  O  O1038  1  0.594864  0.448907  0.342919  1
  O  O1039  1  0.405031  0.448921  0.342923  1
  O  O1040  1  0.405088  0.051008  0.342921  1
  O  O1041  1  0.594923  0.050971  0.342925  1
  O  O1042  1  0.594389  0.337499  0.385078  1
  O  O1043  1  0.404721  0.337193  0.385107  1
  O  O1044  1  0.405440  0.162483  0.385080  1
  O  O1045  1  0.595109  0.162779  0.385109  1
  O  O1046  1  0.725629  0.250447  0.385284  1
  O  O1047  1  0.274194  0.249530  0.385284  1
  O  O1048  1  0.590566  0.449265  0.406568  1
  O  O1049  1  0.409136  0.448867  0.406586  1
  O  O1050  1  0.409254  0.050721  0.406571  1
  O  O1051  1  0.590687  0.051132  0.406588  1
  O  O1052  1  0.499953  0.461472  0.330272  1
  O  O1053  1  0.500048  0.038443  0.330274  1
  O  O1054  1  0.499917  0.249994  0.392098  1
  O  O1055  1  0.499794  0.374929  0.396862  1
  O  O1056  1  0.500014  0.125063  0.396864  1
  O  O1057  1  0.000000  0.000000  0.383075  1
  O  O1058  1  -0.000000  0.499835  0.383071  1
  O  O1059  1  0.298946  0.499956  0.307581  1
  O  O1060  1  0.000000  0.749964  0.891021  1
  O  O1061  1  0.909978  0.845628  0.897538  1
  O  O1062  1  0.090041  0.845801  0.897513  1
  O  O1063  1  0.090071  0.654124  0.897513  1
  O  O1064  1  0.910011  0.654218  0.897534  1
  O  O1065  1  -0.000000  0.873132  0.885492  1
  O  O1066  1  0.000000  0.626833  0.885490  1
  O  O1067  1  0.903425  0.557445  0.876095  1
  O  O1068  1  0.096021  0.558717  0.876023  1
  O  O1069  1  0.095947  0.941251  0.876024  1
  O  O1070  1  0.903359  0.942594  0.876102  1
  O  O1071  1  0.786715  0.845482  0.908026  1
  O  O1072  1  0.213151  0.845428  0.908016  1
  O  O1073  1  0.213179  0.654537  0.908015  1
  O  O1074  1  0.786719  0.654502  0.908018  1
  O  O1075  1  0.739843  0.848103  0.893328  1
  O  O1076  1  0.260240  0.848071  0.893330  1
  O  O1077  1  0.260272  0.651915  0.893329  1
  O  O1078  1  0.739921  0.651912  0.893318  1
  O  O1079  1  0.812621  0.949935  0.899861  1
  O  O1080  1  0.187522  0.949988  0.899869  1
  O  O1081  1  0.187668  0.549973  0.899872  1
  O  O1082  1  0.812402  0.549997  0.899864  1
  O  O1083  1  0.759789  0.948924  0.866673  1
  O  O1084  1  0.240483  0.949030  0.866694  1
  O  O1085  1  0.240540  0.550911  0.866695  1
  O  O1086  1  0.759779  0.550870  0.866680  1
  O  O1087  1  0.747940  0.000000  0.879784  1
  O  O1088  1  0.754423  0.873743  0.878995  1
  O  O1089  1  0.246104  0.874024  0.879019  1
  O  O1090  1  0.246176  0.625967  0.879017  1
  O  O1091  1  0.754539  0.626424  0.878977  1
  O  O1092  1  0.594903  0.837406  0.884048  1
  O  O1093  1  0.405256  0.837349  0.884061  1
  O  O1094  1  0.405309  0.662681  0.884064  1
  O  O1095  1  0.594985  0.662638  0.884043  1
  O  O1096  1  0.725804  0.750050  0.883867  1
  O  O1097  1  0.274375  0.749996  0.883861  1
  O  O1098  1  0.590807  0.948978  0.862550  1
  O  O1099  1  0.409378  0.949190  0.862586  1
  O  O1100  1  0.409403  0.550835  0.862583  1
  O  O1101  1  0.590835  0.551076  0.862553  1
  O  O1102  1  0.500071  0.750017  0.877049  1
  O  O1103  1  0.499928  0.874950  0.872284  1
  O  O1104  1  0.499914  0.625079  0.872285  1
  O  O1105  1  -0.000000  0.500162  0.886073  1
  O  O1106  1  0.000000  0.000000  0.886076  1
  O  O1107  1  0.748080  0.500670  0.879837  1
  O  O1108  1  0.500000  0.249971  0.868615  1
  O  O1109  1  0.409948  0.345680  0.862102  1
  O  O1110  1  0.590012  0.345780  0.862121  1
  O  O1111  1  0.589976  0.154077  0.862125  1
  O  O1112  1  0.409914  0.154264  0.862103  1
  O  O1113  1  0.499598  0.373152  0.874143  1
  O  O1114  1  0.499515  0.126835  0.874146  1
  O  O1115  1  0.403351  0.057389  0.883536  1
  O  O1116  1  0.595943  0.058718  0.883615  1
  O  O1117  1  0.596008  0.441328  0.883607  1
  O  O1118  1  0.403422  0.442582  0.883535  1
  O  O1119  1  0.239855  0.348097  0.866315  1
  O  O1120  1  0.760245  0.348085  0.866302  1
  O  O1121  1  0.760169  0.151933  0.866313  1
  O  O1122  1  0.239819  0.151889  0.866316  1
  O  O1123  1  0.312558  0.449974  0.859777  1
  O  O1124  1  0.687499  0.449984  0.859768  1
  O  O1125  1  0.687722  0.049967  0.859764  1
  O  O1126  1  0.312444  0.049998  0.859775  1
  O  O1127  1  0.259816  0.449044  0.892958  1
  O  O1128  1  0.740522  0.448993  0.892943  1
  O  O1129  1  0.740516  0.050783  0.892937  1
  O  O1130  1  0.259773  0.050881  0.892957  1
  O  O1131  1  0.247953  0.000000  0.879812  1
  O  O1132  1  0.248009  0.499457  0.879820  1
  O  O1133  1  0.254504  0.373643  0.880651  1
  O  O1134  1  0.746148  0.374102  0.880610  1
  O  O1135  1  0.746036  0.126068  0.880630  1
  O  O1136  1  0.254439  0.126347  0.880654  1
  O  O1137  1  0.094925  0.337377  0.875591  1
  O  O1138  1  0.905276  0.337360  0.875574  1
  O  O1139  1  0.905197  0.162662  0.875582  1
  O  O1140  1  0.094875  0.162642  0.875589  1
  O  O1141  1  0.225770  0.249995  0.875772  1
  O  O1142  1  0.774329  0.250047  0.875775  1
  O  O1143  1  0.090849  0.448947  0.897080  1
  O  O1144  1  0.909420  0.449245  0.897053  1
  O  O1145  1  0.909375  0.050799  0.897050  1
  O  O1146  1  0.090833  0.051086  0.897081  1
  O  O1147  1  0.214825  0.444821  0.907854  1
  O  O1148  1  0.785492  0.444788  0.907837  1
  O  O1149  1  0.785441  0.055106  0.907836  1
  O  O1150  1  0.214811  0.055109  0.907855  1
  O  O1151  1  0.000000  0.250009  0.882589  1
  O  O1152  1  -0.000000  0.374946  0.887352  1
  O  O1153  1  0.000000  0.125061  0.887352  1
  O  O1154  1  0.500750  0.499850  0.873558  1
  O  O1155  1  0.500761  0.000000  0.873560  1
  O  O1156  1  0.407454  0.955436  0.776310  1
  O  O1157  1  0.592412  0.955411  0.776308  1
  O  O1158  1  0.592417  0.544527  0.776307  1
  O  O1159  1  0.407457  0.544550  0.776308  1
  O  O1160  1  0.499926  0.500913  0.830916  1
  O  O1161  1  0.499898  0.000000  0.830915  1
  O  O1162  1  0.499867  0.876010  0.767229  1
  O  O1163  1  0.499978  0.623943  0.767227  1
  O  O1164  1  0.592690  0.838319  0.755389  1
  O  O1165  1  0.407115  0.838293  0.755382  1
  O  O1166  1  0.407166  0.661642  0.755386  1
  O  O1167  1  0.592740  0.661664  0.755381  1
  O  O1168  1  0.499925  0.749976  0.762524  1
  O  O1169  1  0.000000  0.858044  0.820533  1
  O  O1170  1  0.000000  0.641935  0.820533  1
  O  O1171  1  0.094001  0.842861  0.832880  1
  O  O1172  1  0.905878  0.842830  0.832871  1
  O  O1173  1  0.905901  0.657130  0.832872  1
  O  O1174  1  0.094021  0.657107  0.832879  1
  O  O1175  1  -0.000000  0.948252  0.830612  1
  O  O1176  1  0.000000  0.551718  0.830611  1
  O  O1177  1  0.000000  0.948230  0.810589  1
  O  O1178  1  0.000000  0.551745  0.810589  1
  O  O1179  1  0.910048  0.841501  0.807797  1
  O  O1180  1  0.089726  0.841501  0.807791  1
  O  O1181  1  0.089745  0.658461  0.807791  1
  O  O1182  1  0.910066  0.658479  0.807795  1
  O  O1183  1  0.260798  0.948803  0.785410  1
  O  O1184  1  0.739038  0.948845  0.785412  1
  O  O1185  1  0.739086  0.551169  0.785405  1
  O  O1186  1  0.260838  0.551137  0.785412  1
  O  O1187  1  0.294639  0.553082  0.818626  1
  O  O1188  1  0.705146  0.553046  0.818623  1
  O  O1189  1  0.705155  0.946922  0.818626  1
  O  O1190  1  0.294653  0.946891  0.818626  1
  O  O1191  1  0.245250  0.949364  0.770441  1
  O  O1192  1  0.754667  0.949399  0.770447  1
  O  O1193  1  0.754610  0.550595  0.770437  1
  O  O1194  1  0.245201  0.550568  0.770447  1
  O  O1195  1  0.286644  0.845379  0.744518  1
  O  O1196  1  0.713094  0.845545  0.744530  1
  O  O1197  1  0.713182  0.654599  0.744515  1
  O  O1198  1  0.286738  0.654438  0.744528  1
  O  O1199  1  0.239620  0.874574  0.758462  1
  O  O1200  1  0.760212  0.874588  0.758473  1
  O  O1201  1  0.760246  0.625381  0.758458  1
  O  O1202  1  0.239652  0.625365  0.758471  1
  O  O1203  1  0.279888  0.749958  0.754434  1
  O  O1204  1  0.719963  0.749999  0.754433  1
  O  O1205  1  0.784245  0.749971  0.834925  1
  O  O1206  1  0.215606  0.749988  0.834938  1
  O  O1207  1  0.747807  0.873669  0.839272  1
  O  O1208  1  0.252027  0.873685  0.839292  1
  O  O1209  1  0.252051  0.626290  0.839292  1
  O  O1210  1  0.747842  0.626271  0.839276  1
  O  O1211  1  0.755251  0.841577  0.825182  1
  O  O1212  1  0.244637  0.841596  0.825198  1
  O  O1213  1  0.244659  0.658386  0.825197  1
  O  O1214  1  0.755265  0.658354  0.825184  1
  O  O1215  1  0.738734  0.844671  0.810407  1
  O  O1216  1  0.261003  0.844620  0.810418  1
  O  O1217  1  0.261023  0.655354  0.810417  1
  O  O1218  1  0.738760  0.655309  0.810408  1
  O  O1219  1  0.802004  0.874130  0.796872  1
  O  O1220  1  0.197909  0.874131  0.796876  1
  O  O1221  1  0.197917  0.625836  0.796875  1
  O  O1222  1  0.801993  0.625848  0.796871  1
  O  O1223  1  0.807318  0.749988  0.802173  1
  O  O1224  1  0.192503  0.749984  0.802175  1
  O  O1225  1  0.089398  0.946963  0.788496  1
  O  O1226  1  0.910469  0.946968  0.788490  1
  O  O1227  1  0.910486  0.553007  0.788493  1
  O  O1228  1  0.089415  0.553021  0.788491  1
  O  O1229  1  0.201004  0.000000  0.798072  1
  O  O1230  1  0.094877  0.948955  0.762728  1
  O  O1231  1  0.905044  0.948926  0.762732  1
  O  O1232  1  0.904995  0.551011  0.762726  1
  O  O1233  1  0.094829  0.551031  0.762731  1
  O  O1234  1  0.714769  0.944818  0.851778  1
  O  O1235  1  0.285432  0.944820  0.851800  1
  O  O1236  1  0.285434  0.555136  0.851799  1
  O  O1237  1  0.714803  0.555102  0.851780  1
  O  O1238  1  0.594463  0.939744  0.840928  1
  O  O1239  1  0.405381  0.939736  0.840933  1
  O  O1240  1  0.405393  0.560220  0.840933  1
  O  O1241  1  0.594475  0.560222  0.840931  1
  O  O1242  1  0.591932  0.846854  0.819312  1
  O  O1243  1  0.407866  0.846833  0.819315  1
  O  O1244  1  0.407887  0.653118  0.819315  1
  O  O1245  1  0.591952  0.653117  0.819313  1
  O  O1246  1  -0.000000  0.961504  0.775379  1
  O  O1247  1  0.000000  0.538469  0.775378  1
  O  O1248  1  0.499907  0.871842  0.831220  1
  O  O1249  1  0.499929  0.628112  0.831220  1
  O  O1250  1  0.499928  0.749978  0.825529  1
  O  O1251  1  0.798917  0.000000  0.798071  1
  O  O1252  1  0.249113  0.500454  0.838894  1
  O  O1253  1  0.750724  0.500426  0.838876  1
  O  O1254  1  0.750744  0.000000  0.838876  1
  O  O1255  1  0.249121  0.000000  0.838895  1
  O  O1256  1  0.407418  0.455440  0.819833  1
  O  O1257  1  0.592375  0.455403  0.819831  1
  O  O1258  1  0.592383  0.044563  0.819832  1
  O  O1259  1  0.407421  0.044544  0.819833  1
  O  O1260  1  0.499926  0.000000  0.765225  1
  O  O1261  1  0.499926  0.499043  0.765223  1
  O  O1262  1  0.499881  0.376008  0.828912  1
  O  O1263  1  0.499896  0.123945  0.828915  1
  O  O1264  1  0.592678  0.338310  0.840755  1
  O  O1265  1  0.407103  0.338306  0.840756  1
  O  O1266  1  0.407100  0.161661  0.840759  1
  O  O1267  1  0.592674  0.161648  0.840760  1
  O  O1268  1  0.499894  0.249974  0.833618  1
  O  O1269  1  0.000000  0.358029  0.775607  1
  O  O1270  1  0.000000  0.141944  0.775607  1
  O  O1271  1  0.093973  0.342818  0.763267  1
  O  O1272  1  0.905853  0.342866  0.763261  1
  O  O1273  1  0.905892  0.157146  0.763266  1
  O  O1274  1  0.094012  0.157100  0.763262  1
  O  O1275  1  0.000000  0.448243  0.765529  1
  O  O1276  1  0.000000  0.051723  0.765529  1
  O  O1277  1  0.000000  0.448221  0.785551  1
  O  O1278  1  0.000000  0.051756  0.785551  1
  O  O1279  1  0.910110  0.341502  0.788348  1
  O  O1280  1  0.089790  0.341491  0.788345  1
  O  O1281  1  0.089771  0.158479  0.788348  1
  O  O1282  1  0.910089  0.158476  0.788346  1
  O  O1283  1  0.260761  0.448818  0.810734  1
  O  O1284  1  0.739000  0.448812  0.810726  1
  O  O1285  1  0.739020  0.051158  0.810729  1
  O  O1286  1  0.260774  0.051158  0.810734  1
  O  O1287  1  0.294657  0.053055  0.777517  1
  O  O1288  1  0.705156  0.053083  0.777514  1
  O  O1289  1  0.705214  0.446909  0.777513  1
  O  O1290  1  0.294702  0.446890  0.777516  1
  O  O1291  1  0.245213  0.449421  0.825702  1
  O  O1292  1  0.754631  0.449339  0.825692  1
  O  O1293  1  0.754623  0.050645  0.825695  1
  O  O1294  1  0.245213  0.050547  0.825702  1
  O  O1295  1  0.286653  0.345486  0.851617  1
  O  O1296  1  0.713100  0.345463  0.851616  1
  O  O1297  1  0.713087  0.154554  0.851625  1
  O  O1298  1  0.286622  0.154503  0.851618  1
  O  O1299  1  0.239607  0.374601  0.837674  1
  O  O1300  1  0.760197  0.374562  0.837672  1
  O  O1301  1  0.760191  0.125383  0.837680  1
  O  O1302  1  0.239607  0.125373  0.837675  1
  O  O1303  1  0.279836  0.249988  0.841707  1
  O  O1304  1  0.719911  0.249974  0.841708  1
  O  O1305  1  0.784253  0.250001  0.761205  1
  O  O1306  1  0.215619  0.249962  0.761209  1
  O  O1307  1  0.747818  0.373696  0.756847  1
  O  O1308  1  0.252028  0.373661  0.756863  1
  O  O1309  1  0.252055  0.126265  0.756852  1
  O  O1310  1  0.747842  0.126293  0.756862  1
  O  O1311  1  0.755211  0.341626  0.770943  1
  O  O1312  1  0.244606  0.341559  0.770955  1
  O  O1313  1  0.244641  0.158336  0.770947  1
  O  O1314  1  0.755251  0.158415  0.770952  1
  O  O1315  1  0.738828  0.344627  0.785722  1
  O  O1316  1  0.261096  0.344641  0.785731  1
  O  O1317  1  0.261054  0.155336  0.785726  1
  O  O1318  1  0.738785  0.155330  0.785729  1
  O  O1319  1  0.801941  0.374136  0.799263  1
  O  O1320  1  0.197871  0.374127  0.799268  1
  O  O1321  1  0.197908  0.125838  0.799267  1
  O  O1322  1  0.801981  0.125848  0.799267  1
  O  O1323  1  0.807337  0.249990  0.793965  1
  O  O1324  1  0.192534  0.249983  0.793968  1
  O  O1325  1  0.089358  0.446957  0.807647  1
  O  O1326  1  0.910427  0.446952  0.807648  1
  O  O1327  1  0.910452  0.053032  0.807651  1
  O  O1328  1  0.089382  0.053016  0.807647  1
  O  O1329  1  0.798869  0.499992  0.798068  1
  O  O1330  1  0.094835  0.448959  0.833413  1
  O  O1331  1  0.905003  0.448918  0.833408  1
  O  O1332  1  0.905004  0.051063  0.833409  1
  O  O1333  1  0.094839  0.051005  0.833415  1
  O  O1334  1  0.714494  0.444895  0.744343  1
  O  O1335  1  0.285150  0.444761  0.744355  1
  O  O1336  1  0.285334  0.055066  0.744347  1
  O  O1337  1  0.714699  0.055172  0.744355  1
  O  O1338  1  0.594451  0.439746  0.755206  1
  O  O1339  1  0.405368  0.439734  0.755209  1
  O  O1340  1  0.405418  0.060216  0.755207  1
  O  O1341  1  0.594501  0.060216  0.755211  1
  O  O1342  1  0.591974  0.346851  0.776824  1
  O  O1343  1  0.407910  0.346836  0.776826  1
  O  O1344  1  0.407892  0.153112  0.776826  1
  O  O1345  1  0.591958  0.153140  0.776826  1
  O  O1346  1  0.000000  0.461495  0.820761  1
  O  O1347  1  0.000000  0.038474  0.820763  1
  O  O1348  1  0.499929  0.371846  0.764919  1
  O  O1349  1  0.499933  0.128111  0.764920  1
  O  O1350  1  0.499922  0.249982  0.770609  1
  O  O1351  1  0.200967  0.499982  0.798072  1
  O  O1352  1  0.249174  0.000000  0.757252  1
  O  O1353  1  0.750784  0.000000  0.757258  1
  O  O1354  1  0.750709  0.499532  0.757248  1
  O  O1355  1  0.249092  0.499502  0.757258  1
  O  O1356  1  0.000000  0.500884  0.667419  1
  O  O1357  1  0.000000  0.000000  0.667421  1
  O  O1358  1  0.499883  0.749981  0.727524  1
  O  O1359  1  0.409999  0.845740  0.734039  1
  O  O1360  1  0.590058  0.845745  0.734020  1
  O  O1361  1  0.589814  0.654229  0.734037  1
  O  O1362  1  0.409754  0.654172  0.734017  1
  O  O1363  1  0.499663  0.873151  0.721998  1
  O  O1364  1  0.500175  0.626830  0.721994  1
  O  O1365  1  0.403885  0.558548  0.712533  1
  O  O1366  1  0.596481  0.557568  0.712595  1
  O  O1367  1  0.595945  0.941456  0.712537  1
  O  O1368  1  0.403348  0.942409  0.712599  1
  O  O1369  1  0.500030  0.858002  0.657037  1
  O  O1370  1  0.499951  0.641911  0.657036  1
  O  O1371  1  0.594064  0.842844  0.669382  1
  O  O1372  1  0.405945  0.842785  0.669377  1
  O  O1373  1  0.405895  0.657076  0.669381  1
  O  O1374  1  0.594016  0.657116  0.669375  1
  O  O1375  1  0.499964  0.948214  0.667115  1
  O  O1376  1  0.499968  0.551695  0.667114  1
  O  O1377  1  0.500008  0.948197  0.647093  1
  O  O1378  1  0.500014  0.551723  0.647092  1
  O  O1379  1  0.410152  0.841471  0.644298  1
  O  O1380  1  0.589831  0.841473  0.644295  1
  O  O1381  1  0.589842  0.658452  0.644296  1
  O  O1382  1  0.410162  0.658444  0.644295  1
  O  O1383  1  0.794758  0.553053  0.655127  1
  O  O1384  1  0.205253  0.553024  0.655128  1
  O  O1385  1  0.205216  0.946869  0.655128  1
  O  O1386  1  0.794709  0.946883  0.655129  1
  O  O1387  1  0.239984  0.847784  0.729815  1
  O  O1388  1  0.760350  0.848337  0.729849  1
  O  O1389  1  0.759829  0.652181  0.729812  1
  O  O1390  1  0.239463  0.651620  0.729847  1
  O  O1391  1  0.312250  0.949867  0.736363  1
  O  O1392  1  0.687283  0.950075  0.736375  1
  O  O1393  1  0.687580  0.550105  0.736361  1
  O  O1394  1  0.312453  0.549877  0.736378  1
  O  O1395  1  0.259642  0.949027  0.703190  1
  O  O1396  1  0.740364  0.949027  0.703192  1
  O  O1397  1  0.740195  0.550940  0.703186  1
  O  O1398  1  0.259458  0.550878  0.703193  1
  O  O1399  1  0.247988  0.998908  0.716369  1
  O  O1400  1  0.254654  0.873188  0.715472  1
  O  O1401  1  0.746292  0.874485  0.715544  1
  O  O1402  1  0.745163  0.626795  0.715468  1
  O  O1403  1  0.253517  0.625502  0.715540  1
  O  O1404  1  0.284289  0.749935  0.671436  1
  O  O1405  1  0.715656  0.749975  0.671435  1
  O  O1406  1  0.247899  0.873632  0.675783  1
  O  O1407  1  0.752103  0.873666  0.675794  1
  O  O1408  1  0.752074  0.626272  0.675779  1
  O  O1409  1  0.247860  0.626239  0.675793  1
  O  O1410  1  0.255303  0.841544  0.661691  1
  O  O1411  1  0.744702  0.841600  0.661698  1
  O  O1412  1  0.744650  0.658387  0.661688  1
  O  O1413  1  0.255259  0.658310  0.661698  1
  O  O1414  1  0.238848  0.844616  0.646915  1
  O  O1415  1  0.761111  0.844603  0.646919  1
  O  O1416  1  0.761143  0.655299  0.646912  1
  O  O1417  1  0.238877  0.655302  0.646919  1
  O  O1418  1  0.307399  0.749956  0.638678  1
  O  O1419  1  0.692596  0.749966  0.638676  1
  O  O1420  1  0.701086  0.000000  0.634575  1
  O  O1421  1  0.298986  -0.000000  0.634575  1
  O  O1422  1  0.095101  0.837191  0.720545  1
  O  O1423  1  0.905434  0.837497  0.720574  1
  O  O1424  1  0.904713  0.662777  0.720542  1
  O  O1425  1  0.094381  0.662480  0.720571  1
  O  O1426  1  0.225625  0.749529  0.720367  1
  O  O1427  1  0.774193  0.750447  0.720367  1
  O  O1428  1  0.090695  0.948859  0.699066  1
  O  O1429  1  0.909270  0.949271  0.699084  1
  O  O1430  1  0.909146  0.551114  0.699063  1
  O  O1431  1  0.090577  0.550717  0.699080  1
  O  O1432  1  0.214713  0.944746  0.688291  1
  O  O1433  1  0.785389  0.944854  0.688300  1
  O  O1434  1  0.785177  0.555180  0.688287  1
  O  O1435  1  0.214526  0.555051  0.688299  1
  O  O1436  1  0.094551  0.939701  0.677434  1
  O  O1437  1  0.905470  0.939710  0.677438  1
  O  O1438  1  0.905411  0.560197  0.677433  1
  O  O1439  1  0.094493  0.560192  0.677436  1
  O  O1440  1  0.092017  0.846809  0.655818  1
  O  O1441  1  0.907952  0.846827  0.655819  1
  O  O1442  1  0.907957  0.653111  0.655816  1
  O  O1443  1  0.092023  0.653083  0.655817  1
  O  O1444  1  0.000000  0.749991  0.713554  1
  O  O1445  1  -0.000000  0.874929  0.708790  1
  O  O1446  1  -0.000000  0.625055  0.708787  1
  O  O1447  1  0.000000  0.871815  0.667724  1
  O  O1448  1  -0.000000  0.628084  0.667723  1
  O  O1449  1  -0.000000  0.749953  0.662033  1
  O  O1450  1  0.499328  0.500143  0.722578  1
  O  O1451  1  0.500490  0.000000  0.722581  1
  O  O1452  1  0.751835  0.501075  0.716367  1
  O  O1453  1  0.749130  0.500430  0.675384  1
  O  O1454  1  0.250747  0.500401  0.675394  1
  O  O1455  1  0.250829  0.000000  0.675388  1
  O  O1456  1  0.749222  0.000000  0.675395  1
  O  O1457  1  0.907501  0.455383  0.656335  1
  O  O1458  1  0.092460  0.455399  0.656334  1
  O  O1459  1  0.092469  0.044534  0.656337  1
  O  O1460  1  0.907510  0.044495  0.656337  1
  O  O1461  1  0.000000  0.375981  0.665415  1
  O  O1462  1  -0.000000  0.123916  0.665418  1
  O  O1463  1  0.092774  0.338270  0.677262  1
  O  O1464  1  0.907199  0.338294  0.677257  1
  O  O1465  1  0.907149  0.161640  0.677265  1
  O  O1466  1  0.092728  0.161617  0.677258  1
  O  O1467  1  0.000000  0.249949  0.670121  1
  O  O1468  1  0.000000  0.249976  0.705118  1
  O  O1469  1  0.909770  0.345773  0.698625  1
  O  O1470  1  0.089827  0.345721  0.698604  1
  O  O1471  1  0.090071  0.154177  0.698626  1
  O  O1472  1  0.910012  0.154187  0.698607  1
  O  O1473  1  0.000000  0.373141  0.710647  1
  O  O1474  1  0.000000  0.126833  0.710649  1
  O  O1475  1  0.903352  0.057592  0.720050  1
  O  O1476  1  0.095944  0.058550  0.720111  1
  O  O1477  1  0.096482  0.442407  0.720046  1
  O  O1478  1  0.903889  0.441434  0.720107  1
  O  O1479  1  0.760889  0.448810  0.647231  1
  O  O1480  1  0.239134  0.448772  0.647236  1
  O  O1481  1  0.239107  0.051120  0.647234  1
  O  O1482  1  0.760856  0.051145  0.647237  1
  O  O1483  1  0.745238  0.449374  0.662196  1
  O  O1484  1  0.254651  0.449339  0.662205  1
  O  O1485  1  0.254714  0.050539  0.662199  1
  O  O1486  1  0.745308  0.050568  0.662206  1
  O  O1487  1  0.786760  0.345526  0.688114  1
  O  O1488  1  0.213210  0.345364  0.688127  1
  O  O1489  1  0.213125  0.154420  0.688117  1
  O  O1490  1  0.786668  0.154586  0.688129  1
  O  O1491  1  0.739688  0.374566  0.674171  1
  O  O1492  1  0.260277  0.374552  0.674183  1
  O  O1493  1  0.260253  0.125339  0.674174  1
  O  O1494  1  0.739655  0.125354  0.674185  1
  O  O1495  1  0.779922  0.249978  0.678210  1
  O  O1496  1  0.220001  0.249937  0.678210  1
  O  O1497  1  0.739476  0.348340  0.702795  1
  O  O1498  1  0.259838  0.347786  0.702830  1
  O  O1499  1  0.260357  0.151615  0.702798  1
  O  O1500  1  0.739996  0.152172  0.702832  1
  O  O1501  1  0.812499  0.450081  0.696267  1
  O  O1502  1  0.187561  0.449857  0.696281  1
  O  O1503  1  0.187363  0.049870  0.696267  1
  O  O1504  1  0.812195  0.050080  0.696280  1
  O  O1505  1  0.759458  0.449077  0.729449  1
  O  O1506  1  0.240184  0.449017  0.729456  1
  O  O1507  1  0.240368  0.050901  0.729453  1
  O  O1508  1  0.759624  0.050903  0.729455  1
  O  O1509  1  0.748056  0.001092  0.716269  1
  O  O1510  1  0.251851  0.498912  0.716278  1
  O  O1511  1  0.753527  0.374479  0.717101  1
  O  O1512  1  0.245172  0.373189  0.717173  1
  O  O1513  1  0.246308  0.125503  0.717105  1
  O  O1514  1  0.754655  0.126802  0.717177  1
  O  O1515  1  0.302075  0.374099  0.635770  1
  O  O1516  1  0.697999  0.374113  0.635768  1
  O  O1517  1  0.698011  0.125813  0.635769  1
  O  O1518  1  0.302079  0.125817  0.635771  1
  O  O1519  1  0.589471  0.446926  0.644150  1
  O  O1520  1  0.410541  0.446939  0.644150  1
  O  O1521  1  0.410535  0.052988  0.644155  1
  O  O1522  1  0.589463  0.052994  0.644150  1
  O  O1523  1  0.594864  0.448907  0.669912  1
  O  O1524  1  0.405031  0.448921  0.669915  1
  O  O1525  1  0.405088  0.051008  0.669914  1
  O  O1526  1  0.594923  0.050971  0.669918  1
  O  O1527  1  0.594389  0.337499  0.712071  1
  O  O1528  1  0.404721  0.337193  0.712099  1
  O  O1529  1  0.405440  0.162483  0.712072  1
  O  O1530  1  0.595109  0.162779  0.712102  1
  O  O1531  1  0.725629  0.250447  0.712277  1
  O  O1532  1  0.274194  0.249530  0.712277  1
  O  O1533  1  0.590566  0.449265  0.733561  1
  O  O1534  1  0.409136  0.448867  0.733579  1
  O  O1535  1  0.409254  0.050721  0.733564  1
  O  O1536  1  0.590687  0.051132  0.733580  1
  O  O1537  1  0.499953  0.461472  0.657264  1
  O  O1538  1  0.500048  0.038443  0.657267  1
  O  O1539  1  0.499917  0.249994  0.719090  1
  O  O1540  1  0.499794  0.374929  0.723855  1
  O  O1541  1  0.500014  0.125063  0.723857  1
  O  O1542  1  0.000000  0.000000  0.710067  1
  O  O1543  1  0.000000  0.499835  0.710064  1
  O  O1544  1  0.298946  0.499956  0.634574  1
  Si  Si1545  1  0.500087  0.673681  0.225444  1
  Si  Si1546  1  0.500046  0.826355  0.225443  1
  Si  Si1547  1  0.500039  0.525615  0.275919  1
  Si  Si1548  1  0.500026  0.974307  0.275920  1
  Si  Si1549  1  0.500008  0.525412  0.293847  1
  Si  Si1550  1  0.500028  0.974508  0.293848  1
  Si  Si1551  1  0.802167  0.975342  0.287097  1
  Si  Si1552  1  0.197875  0.975307  0.287097  1
  Si  Si1553  1  0.197883  0.524621  0.287095  1
  Si  Si1554  1  0.802168  0.524585  0.287094  1
  Si  Si1555  1  0.810074  0.872213  0.245756  1
  Si  Si1556  1  0.189929  0.872257  0.245749  1
  Si  Si1557  1  0.189981  0.627704  0.245748  1
  Si  Si1558  1  0.810051  0.627723  0.245750  1
  Si  Si1559  1  0.793014  0.940050  0.221304  1
  Si  Si1560  1  0.206532  0.939841  0.221295  1
  Si  Si1561  1  0.206607  0.560135  0.221296  1
  Si  Si1562  1  0.793066  0.560004  0.221303  1
  Si  Si1563  1  0.689248  0.941046  0.301735  1
  Si  Si1564  1  0.310808  0.941039  0.301735  1
  Si  Si1565  1  0.310794  0.558879  0.301735  1
  Si  Si1566  1  0.689231  0.558888  0.301731  1
  Si  Si1567  1  0.691459  0.972165  0.206081  1
  Si  Si1568  1  0.308764  0.972214  0.206102  1
  Si  Si1569  1  0.308805  0.527758  0.206101  1
  Si  Si1570  1  0.691435  0.527778  0.206084  1
  Si  Si1571  1  0.705204  0.942313  0.271569  1
  Si  Si1572  1  0.294856  0.942241  0.271573  1
  Si  Si1573  1  0.294870  0.557687  0.271571  1
  Si  Si1574  1  0.705217  0.557611  0.271566  1
  Si  Si1575  1  0.704625  0.826961  0.231074  1
  Si  Si1576  1  0.295524  0.826933  0.231080  1
  Si  Si1577  1  0.295564  0.673063  0.231080  1
  Si  Si1578  1  0.704707  0.673118  0.231067  1
  Si  Si1579  1  0.800351  0.826684  0.262779  1
  Si  Si1580  1  0.199615  0.826693  0.262771  1
  Si  Si1581  1  0.199625  0.673242  0.262771  1
  Si  Si1582  1  0.800359  0.673236  0.262773  1
  Si  Si1583  1  -0.000000  0.945059  0.281044  1
  Si  Si1584  1  0.000000  0.554866  0.281043  1
  Si  Si1585  1  -0.000000  0.561477  0.226536  1
  Si  Si1586  1  -0.000000  0.938499  0.226540  1
  Si  Si1587  1  0.500197  0.558100  0.213596  1
  Si  Si1588  1  0.500196  0.941933  0.213595  1
  Si  Si1589  1  0.000000  0.827110  0.238817  1
  Si  Si1590  1  0.000000  0.672817  0.238818  1
  Si  Si1591  1  -0.000000  0.826382  0.269712  1
  Si  Si1592  1  -0.000000  0.673532  0.269709  1
  Si  Si1593  1  0.000000  0.173673  0.226224  1
  Si  Si1594  1  -0.000000  0.326344  0.226223  1
  Si  Si1595  1  0.500034  0.128947  0.294032  1
  Si  Si1596  1  0.310033  0.372248  0.205915  1
  Si  Si1597  1  0.689895  0.372255  0.205915  1
  Si  Si1598  1  0.689918  0.127698  0.205922  1
  Si  Si1599  1  0.309982  0.127725  0.205915  1
  Si  Si1600  1  0.293071  0.440020  0.230360  1
  Si  Si1601  1  0.706589  0.439898  0.230368  1
  Si  Si1602  1  0.706538  0.060155  0.230370  1
  Si  Si1603  1  0.293000  0.059954  0.230360  1
  Si  Si1604  1  0.191464  0.472176  0.245581  1
  Si  Si1605  1  0.808775  0.472213  0.245565  1
  Si  Si1606  1  0.808784  0.027712  0.245563  1
  Si  Si1607  1  0.191419  0.027786  0.245581  1
  Si  Si1608  1  0.202689  0.438159  0.262863  1
  Si  Si1609  1  0.797443  0.438146  0.262850  1
  Si  Si1610  1  0.797420  0.061758  0.262848  1
  Si  Si1611  1  0.202670  0.061766  0.262864  1
  Si  Si1612  1  0.196836  0.369390  0.287396  1
  Si  Si1613  1  0.803248  0.369358  0.287392  1
  Si  Si1614  1  0.803238  0.130567  0.287392  1
  Si  Si1615  1  0.196825  0.130536  0.287396  1
  Si  Si1616  1  0.298127  0.326532  0.272305  1
  Si  Si1617  1  0.702033  0.326527  0.272296  1
  Si  Si1618  1  0.702023  0.173377  0.272296  1
  Si  Si1619  1  0.298117  0.173391  0.272305  1
  Si  Si1620  1  0.312624  0.326509  0.301626  1
  Si  Si1621  1  0.687453  0.326509  0.301624  1
  Si  Si1622  1  0.687449  0.173411  0.301625  1
  Si  Si1623  1  0.312617  0.173407  0.301626  1
  Si  Si1624  1  0.204651  0.326917  0.220597  1
  Si  Si1625  1  0.795542  0.326972  0.220582  1
  Si  Si1626  1  0.795468  0.173102  0.220591  1
  Si  Si1627  1  0.204613  0.173077  0.220598  1
  Si  Si1628  1  0.499819  0.061463  0.225127  1
  Si  Si1629  1  0.499874  0.438531  0.225122  1
  Si  Si1630  1  0.000000  0.058066  0.238068  1
  Si  Si1631  1  0.000000  0.441942  0.238068  1
  Si  Si1632  1  -0.000000  0.436538  0.269355  1
  Si  Si1633  1  0.000000  0.063379  0.269354  1
  Si  Si1634  1  0.000000  0.327085  0.281871  1
  Si  Si1635  1  0.000000  0.172832  0.281870  1
  Si  Si1636  1  0.499934  0.327119  0.212848  1
  Si  Si1637  1  0.499905  0.172823  0.212848  1
  Si  Si1638  1  0.500091  0.371161  0.276177  1
  Si  Si1639  1  0.500079  0.128761  0.276178  1
  Si  Si1640  1  0.500037  0.370974  0.294031  1
  Si  Si1641  1  -0.000000  0.525639  0.112423  1
  Si  Si1642  1  -0.000000  0.974327  0.112424  1
  Si  Si1643  1  0.000000  0.525439  0.130351  1
  Si  Si1644  1  0.000000  0.974538  0.130352  1
  Si  Si1645  1  -0.000000  0.628966  0.157634  1
  Si  Si1646  1  0.302065  0.975330  0.123600  1
  Si  Si1647  1  0.697773  0.975356  0.123601  1
  Si  Si1648  1  0.697807  0.524634  0.123596  1
  Si  Si1649  1  0.302092  0.524617  0.123602  1
  Si  Si1650  1  0.189160  0.941062  0.138240  1
  Si  Si1651  1  0.810728  0.941074  0.138238  1
  Si  Si1652  1  0.810720  0.558913  0.138235  1
  Si  Si1653  1  0.189159  0.558905  0.138239  1
  Si  Si1654  1  0.702567  0.938171  0.188798  1
  Si  Si1655  1  0.297321  0.938180  0.188817  1
  Si  Si1656  1  0.297331  0.561787  0.188816  1
  Si  Si1657  1  0.702581  0.561773  0.188800  1
  Si  Si1658  1  0.696685  0.869419  0.164267  1
  Si  Si1659  1  0.303100  0.869389  0.164275  1
  Si  Si1660  1  0.303112  0.630583  0.164274  1
  Si  Si1661  1  0.696702  0.630549  0.164267  1
  Si  Si1662  1  0.797988  0.826540  0.179356  1
  Si  Si1663  1  0.201890  0.826563  0.179371  1
  Si  Si1664  1  0.201907  0.673412  0.179371  1
  Si  Si1665  1  0.798002  0.673400  0.179358  1
  Si  Si1666  1  0.812501  0.826539  0.150039  1
  Si  Si1667  1  0.187322  0.826533  0.150042  1
  Si  Si1668  1  0.187336  0.673433  0.150041  1
  Si  Si1669  1  0.812509  0.673436  0.150039  1
  Si  Si1670  1  0.205131  0.942284  0.108072  1
  Si  Si1671  1  0.794783  0.942292  0.108079  1
  Si  Si1672  1  0.794742  0.557674  0.108068  1
  Si  Si1673  1  0.205091  0.557665  0.108078  1
  Si  Si1674  1  0.300274  0.826682  0.099274  1
  Si  Si1675  1  0.699534  0.826728  0.099282  1
  Si  Si1676  1  0.699576  0.673278  0.099272  1
  Si  Si1677  1  0.300318  0.673232  0.099280  1
  Si  Si1678  1  0.499923  0.945073  0.117548  1
  Si  Si1679  1  0.499937  0.554883  0.117547  1
  Si  Si1680  1  0.499902  0.936557  0.182309  1
  Si  Si1681  1  0.499923  0.563399  0.182310  1
  Si  Si1682  1  0.499913  0.827105  0.169793  1
  Si  Si1683  1  0.499928  0.672851  0.169794  1
  Si  Si1684  1  0.499883  0.826403  0.106216  1
  Si  Si1685  1  0.499967  0.673553  0.106214  1
  Si  Si1686  1  -0.000000  0.871196  0.175488  1
  Si  Si1687  1  0.000000  0.628776  0.175487  1
  Si  Si1688  1  0.000000  0.871010  0.157634  1
  Si  Si1689  1  0.000000  0.025649  0.175747  1
  Si  Si1690  1  0.000000  0.474322  0.175745  1
  Si  Si1691  1  0.000000  0.025448  0.157819  1
  Si  Si1692  1  0.000000  0.474527  0.157817  1
  Si  Si1693  1  -0.000000  0.128976  0.130536  1
  Si  Si1694  1  0.302040  0.475358  0.164572  1
  Si  Si1695  1  0.697748  0.475318  0.164566  1
  Si  Si1696  1  0.697759  0.024651  0.164569  1
  Si  Si1697  1  0.302046  0.024616  0.164572  1
  Si  Si1698  1  0.189126  0.441061  0.149933  1
  Si  Si1699  1  0.810686  0.441065  0.149929  1
  Si  Si1700  1  0.810712  0.058917  0.149932  1
  Si  Si1701  1  0.189150  0.058910  0.149933  1
  Si  Si1702  1  0.702521  0.438198  0.099354  1
  Si  Si1703  1  0.297274  0.438155  0.099366  1
  Si  Si1704  1  0.297341  0.061763  0.099358  1
  Si  Si1705  1  0.702591  0.061794  0.099366  1
  Si  Si1706  1  0.696738  0.369408  0.123894  1
  Si  Si1707  1  0.303151  0.369387  0.123901  1
  Si  Si1708  1  0.303131  0.130556  0.123898  1
  Si  Si1709  1  0.696718  0.130587  0.123899  1
  Si  Si1710  1  0.797961  0.326583  0.108799  1
  Si  Si1711  1  0.201865  0.326526  0.108810  1
  Si  Si1712  1  0.201906  0.173380  0.108802  1
  Si  Si1713  1  0.798000  0.173438  0.108807  1
  Si  Si1714  1  0.812517  0.326537  0.138127  1
  Si  Si1715  1  0.187348  0.326533  0.138131  1
  Si  Si1716  1  0.187353  0.173434  0.138130  1
  Si  Si1717  1  0.812521  0.173438  0.138129  1
  Si  Si1718  1  0.205092  0.442325  0.180099  1
  Si  Si1719  1  0.794745  0.442251  0.180090  1
  Si  Si1720  1  0.794745  0.057717  0.180093  1
  Si  Si1721  1  0.205096  0.057646  0.180100  1
  Si  Si1722  1  0.300256  0.326712  0.188892  1
  Si  Si1723  1  0.699517  0.326703  0.188892  1
  Si  Si1724  1  0.699509  0.173252  0.188898  1
  Si  Si1725  1  0.300250  0.173263  0.188893  1
  Si  Si1726  1  0.499900  0.445072  0.170622  1
  Si  Si1727  1  0.499903  0.054896  0.170623  1
  Si  Si1728  1  0.499924  0.436560  0.105858  1
  Si  Si1729  1  0.499944  0.063396  0.105860  1
  Si  Si1730  1  0.499936  0.327109  0.118374  1
  Si  Si1731  1  0.499921  0.172855  0.118375  1
  Si  Si1732  1  0.499887  0.326402  0.181955  1
  Si  Si1733  1  0.499895  0.173552  0.181958  1
  Si  Si1734  1  -0.000000  0.371186  0.112681  1
  Si  Si1735  1  -0.000000  0.128781  0.112682  1
  Si  Si1736  1  -0.000000  0.371001  0.130535  1
  Si  Si1737  1  0.000000  0.826326  0.061949  1
  Si  Si1738  1  -0.000000  0.673652  0.061947  1
  Si  Si1739  1  0.309971  0.872137  0.082248  1
  Si  Si1740  1  0.689852  0.872349  0.082263  1
  Si  Si1741  1  0.689846  0.627834  0.082245  1
  Si  Si1742  1  0.309947  0.627603  0.082261  1
  Si  Si1743  1  0.292983  0.939727  0.057809  1
  Si  Si1744  1  0.706513  0.940140  0.057803  1
  Si  Si1745  1  0.706846  0.560251  0.057805  1
  Si  Si1746  1  0.293311  0.559833  0.057802  1
  Si  Si1747  1  0.191300  0.972081  0.042593  1
  Si  Si1748  1  0.808635  0.972289  0.042601  1
  Si  Si1749  1  0.808549  0.527872  0.042591  1
  Si  Si1750  1  0.191199  0.527646  0.042600  1
  Si  Si1751  1  0.204791  0.826518  0.067564  1
  Si  Si1752  1  0.795664  0.827309  0.067596  1
  Si  Si1753  1  0.795024  0.673455  0.067561  1
  Si  Si1754  1  0.204153  0.672664  0.067594  1
  Si  Si1755  1  0.500043  0.561464  0.063042  1
  Si  Si1756  1  0.499789  0.938521  0.063046  1
  Si  Si1757  1  0.000000  0.558067  0.050100  1
  Si  Si1758  1  0.000000  0.941918  0.050103  1
  Si  Si1759  1  0.499958  0.827127  0.075322  1
  Si  Si1760  1  0.499845  0.672833  0.075321  1
  Si  Si1761  1  0.500151  0.173655  0.062726  1
  Si  Si1762  1  0.499677  0.326329  0.062725  1
  Si  Si1763  1  0.809969  0.372355  0.042411  1
  Si  Si1764  1  0.189854  0.372127  0.042425  1
  Si  Si1765  1  0.189879  0.127596  0.042413  1
  Si  Si1766  1  0.809973  0.127810  0.042428  1
  Si  Si1767  1  0.793317  0.440143  0.066869  1
  Si  Si1768  1  0.206845  0.439725  0.066866  1
  Si  Si1769  1  0.206516  0.059839  0.066873  1
  Si  Si1770  1  0.792982  0.060250  0.066867  1
  Si  Si1771  1  0.691194  0.472316  0.082071  1
  Si  Si1772  1  0.308530  0.472086  0.082081  1
  Si  Si1773  1  0.308630  0.027657  0.082074  1
  Si  Si1774  1  0.691279  0.027864  0.082081  1
  Si  Si1775  1  0.704159  0.327310  0.057077  1
  Si  Si1776  1  0.295031  0.326519  0.057110  1
  Si  Si1777  1  0.295668  0.172665  0.057079  1
  Si  Si1778  1  0.704798  0.173455  0.057111  1
  Si  Si1779  1  0.000000  0.061471  0.061631  1
  Si  Si1780  1  -0.000000  0.438510  0.061628  1
  Si  Si1781  1  0.499994  0.058077  0.074574  1
  Si  Si1782  1  0.499819  0.441916  0.074571  1
  Si  Si1783  1  -0.000000  0.327123  0.049351  1
  Si  Si1784  1  -0.000000  0.172827  0.049352  1
  Si  Si1785  1  0.500087  0.673681  0.552436  1
  Si  Si1786  1  0.500046  0.826355  0.552436  1
  Si  Si1787  1  0.500039  0.525615  0.602911  1
  Si  Si1788  1  0.500026  0.974307  0.602913  1
  Si  Si1789  1  0.500008  0.525412  0.620839  1
  Si  Si1790  1  0.500028  0.974508  0.620841  1
  Si  Si1791  1  0.802167  0.975342  0.614089  1
  Si  Si1792  1  0.197875  0.975307  0.614090  1
  Si  Si1793  1  0.197883  0.524621  0.614088  1
  Si  Si1794  1  0.802168  0.524585  0.614087  1
  Si  Si1795  1  0.810074  0.872213  0.572749  1
  Si  Si1796  1  0.189929  0.872257  0.572741  1
  Si  Si1797  1  0.189981  0.627704  0.572740  1
  Si  Si1798  1  0.810051  0.627723  0.572742  1
  Si  Si1799  1  0.793014  0.940050  0.548297  1
  Si  Si1800  1  0.206532  0.939841  0.548288  1
  Si  Si1801  1  0.206607  0.560135  0.548289  1
  Si  Si1802  1  0.793066  0.560004  0.548296  1
  Si  Si1803  1  0.689248  0.941046  0.628727  1
  Si  Si1804  1  0.310808  0.941039  0.628727  1
  Si  Si1805  1  0.310794  0.558879  0.628727  1
  Si  Si1806  1  0.689231  0.558888  0.628724  1
  Si  Si1807  1  0.691459  0.972165  0.533073  1
  Si  Si1808  1  0.308764  0.972214  0.533094  1
  Si  Si1809  1  0.308805  0.527758  0.533093  1
  Si  Si1810  1  0.691435  0.527778  0.533076  1
  Si  Si1811  1  0.705204  0.942313  0.598562  1
  Si  Si1812  1  0.294856  0.942241  0.598565  1
  Si  Si1813  1  0.294870  0.557687  0.598564  1
  Si  Si1814  1  0.705217  0.557611  0.598559  1
  Si  Si1815  1  0.704625  0.826961  0.558067  1
  Si  Si1816  1  0.295524  0.826933  0.558073  1
  Si  Si1817  1  0.295564  0.673063  0.558072  1
  Si  Si1818  1  0.704707  0.673118  0.558059  1
  Si  Si1819  1  0.800351  0.826684  0.589771  1
  Si  Si1820  1  0.199615  0.826693  0.589764  1
  Si  Si1821  1  0.199625  0.673242  0.589764  1
  Si  Si1822  1  0.800359  0.673236  0.589766  1
  Si  Si1823  1  0.000000  0.945059  0.608036  1
  Si  Si1824  1  0.000000  0.554866  0.608035  1
  Si  Si1825  1  0.000000  0.561477  0.553529  1
  Si  Si1826  1  0.000000  0.938499  0.553533  1
  Si  Si1827  1  0.500197  0.558100  0.540589  1
  Si  Si1828  1  0.500196  0.941933  0.540588  1
  Si  Si1829  1  -0.000000  0.827110  0.565810  1
  Si  Si1830  1  0.000000  0.672817  0.565810  1
  Si  Si1831  1  0.000000  0.826382  0.596705  1
  Si  Si1832  1  0.000000  0.673532  0.596702  1
  Si  Si1833  1  -0.000000  0.173673  0.553217  1
  Si  Si1834  1  0.000000  0.326344  0.553216  1
  Si  Si1835  1  0.500034  0.128947  0.621025  1
  Si  Si1836  1  0.310033  0.372248  0.532907  1
  Si  Si1837  1  0.689895  0.372255  0.532907  1
  Si  Si1838  1  0.689918  0.127698  0.532914  1
  Si  Si1839  1  0.309982  0.127725  0.532908  1
  Si  Si1840  1  0.293071  0.440020  0.557353  1
  Si  Si1841  1  0.706589  0.439898  0.557361  1
  Si  Si1842  1  0.706538  0.060155  0.557362  1
  Si  Si1843  1  0.293000  0.059954  0.557352  1
  Si  Si1844  1  0.191464  0.472176  0.572574  1
  Si  Si1845  1  0.808775  0.472213  0.572558  1
  Si  Si1846  1  0.808784  0.027712  0.572556  1
  Si  Si1847  1  0.191419  0.027786  0.572574  1
  Si  Si1848  1  0.202689  0.438159  0.589856  1
  Si  Si1849  1  0.797443  0.438146  0.589842  1
  Si  Si1850  1  0.797420  0.061758  0.589841  1
  Si  Si1851  1  0.202670  0.061766  0.589857  1
  Si  Si1852  1  0.196836  0.369390  0.614388  1
  Si  Si1853  1  0.803248  0.369358  0.614385  1
  Si  Si1854  1  0.803238  0.130567  0.614385  1
  Si  Si1855  1  0.196825  0.130536  0.614389  1
  Si  Si1856  1  0.298127  0.326532  0.599298  1
  Si  Si1857  1  0.702033  0.326527  0.599289  1
  Si  Si1858  1  0.702023  0.173377  0.599288  1
  Si  Si1859  1  0.298117  0.173391  0.599298  1
  Si  Si1860  1  0.312624  0.326509  0.628618  1
  Si  Si1861  1  0.687453  0.326509  0.628616  1
  Si  Si1862  1  0.687449  0.173411  0.628618  1
  Si  Si1863  1  0.312617  0.173407  0.628619  1
  Si  Si1864  1  0.204651  0.326917  0.547590  1
  Si  Si1865  1  0.795542  0.326972  0.547575  1
  Si  Si1866  1  0.795468  0.173102  0.547583  1
  Si  Si1867  1  0.204613  0.173077  0.547590  1
  Si  Si1868  1  0.499819  0.061463  0.552120  1
  Si  Si1869  1  0.499874  0.438531  0.552115  1
  Si  Si1870  1  -0.000000  0.058066  0.565060  1
  Si  Si1871  1  -0.000000  0.441942  0.565060  1
  Si  Si1872  1  -0.000000  0.436538  0.596347  1
  Si  Si1873  1  0.000000  0.063379  0.596347  1
  Si  Si1874  1  0.000000  0.327085  0.608863  1
  Si  Si1875  1  0.000000  0.172832  0.608863  1
  Si  Si1876  1  0.499934  0.327119  0.539841  1
  Si  Si1877  1  0.499905  0.172823  0.539841  1
  Si  Si1878  1  0.500091  0.371161  0.603170  1
  Si  Si1879  1  0.500079  0.128761  0.603171  1
  Si  Si1880  1  0.500037  0.370974  0.621024  1
  Si  Si1881  1  0.000000  0.525639  0.439416  1
  Si  Si1882  1  -0.000000  0.974327  0.439417  1
  Si  Si1883  1  0.000000  0.525439  0.457344  1
  Si  Si1884  1  0.000000  0.974538  0.457345  1
  Si  Si1885  1  0.000000  0.628966  0.484626  1
  Si  Si1886  1  0.302065  0.975330  0.450593  1
  Si  Si1887  1  0.697773  0.975356  0.450594  1
  Si  Si1888  1  0.697807  0.524634  0.450589  1
  Si  Si1889  1  0.302092  0.524617  0.450594  1
  Si  Si1890  1  0.189160  0.941062  0.465232  1
  Si  Si1891  1  0.810728  0.941074  0.465230  1
  Si  Si1892  1  0.810720  0.558913  0.465228  1
  Si  Si1893  1  0.189159  0.558905  0.465232  1
  Si  Si1894  1  0.702567  0.938171  0.515790  1
  Si  Si1895  1  0.297321  0.938180  0.515809  1
  Si  Si1896  1  0.297331  0.561787  0.515808  1
  Si  Si1897  1  0.702581  0.561773  0.515793  1
  Si  Si1898  1  0.696685  0.869419  0.491259  1
  Si  Si1899  1  0.303100  0.869389  0.491267  1
  Si  Si1900  1  0.303112  0.630583  0.491267  1
  Si  Si1901  1  0.696702  0.630549  0.491260  1
  Si  Si1902  1  0.797988  0.826540  0.506349  1
  Si  Si1903  1  0.201890  0.826563  0.506364  1
  Si  Si1904  1  0.201907  0.673412  0.506363  1
  Si  Si1905  1  0.798002  0.673400  0.506350  1
  Si  Si1906  1  0.812501  0.826539  0.477032  1
  Si  Si1907  1  0.187322  0.826533  0.477034  1
  Si  Si1908  1  0.187336  0.673433  0.477034  1
  Si  Si1909  1  0.812509  0.673436  0.477031  1
  Si  Si1910  1  0.205131  0.942284  0.435065  1
  Si  Si1911  1  0.794783  0.942292  0.435071  1
  Si  Si1912  1  0.794742  0.557674  0.435061  1
  Si  Si1913  1  0.205091  0.557665  0.435071  1
  Si  Si1914  1  0.300274  0.826682  0.426267  1
  Si  Si1915  1  0.699534  0.826728  0.426275  1
  Si  Si1916  1  0.699576  0.673278  0.426264  1
  Si  Si1917  1  0.300318  0.673232  0.426273  1
  Si  Si1918  1  0.499923  0.945073  0.444541  1
  Si  Si1919  1  0.499937  0.554883  0.444539  1
  Si  Si1920  1  0.499902  0.936557  0.509302  1
  Si  Si1921  1  0.499923  0.563399  0.509303  1
  Si  Si1922  1  0.499913  0.827105  0.496786  1
  Si  Si1923  1  0.499928  0.672851  0.496787  1
  Si  Si1924  1  0.499883  0.826403  0.433208  1
  Si  Si1925  1  0.499967  0.673553  0.433207  1
  Si  Si1926  1  0.000000  0.871196  0.502481  1
  Si  Si1927  1  0.000000  0.628776  0.502480  1
  Si  Si1928  1  0.000000  0.871010  0.484627  1
  Si  Si1929  1  0.000000  0.025649  0.502740  1
  Si  Si1930  1  -0.000000  0.474322  0.502738  1
  Si  Si1931  1  -0.000000  0.025448  0.484812  1
  Si  Si1932  1  0.000000  0.474527  0.484810  1
  Si  Si1933  1  0.000000  0.128976  0.457528  1
  Si  Si1934  1  0.302040  0.475358  0.491564  1
  Si  Si1935  1  0.697748  0.475318  0.491559  1
  Si  Si1936  1  0.697759  0.024651  0.491562  1
  Si  Si1937  1  0.302046  0.024616  0.491565  1
  Si  Si1938  1  0.189126  0.441061  0.476926  1
  Si  Si1939  1  0.810686  0.441065  0.476921  1
  Si  Si1940  1  0.810712  0.058917  0.476925  1
  Si  Si1941  1  0.189150  0.058910  0.476926  1
  Si  Si1942  1  0.702521  0.438198  0.426347  1
  Si  Si1943  1  0.297274  0.438155  0.426359  1
  Si  Si1944  1  0.297341  0.061763  0.426350  1
  Si  Si1945  1  0.702591  0.061794  0.426359  1
  Si  Si1946  1  0.696738  0.369408  0.450887  1
  Si  Si1947  1  0.303151  0.369387  0.450893  1
  Si  Si1948  1  0.303131  0.130556  0.450890  1
  Si  Si1949  1  0.696718  0.130587  0.450892  1
  Si  Si1950  1  0.797961  0.326583  0.435791  1
  Si  Si1951  1  0.201865  0.326526  0.435802  1
  Si  Si1952  1  0.201906  0.173380  0.435795  1
  Si  Si1953  1  0.798000  0.173438  0.435800  1
  Si  Si1954  1  0.812517  0.326537  0.465119  1
  Si  Si1955  1  0.187348  0.326533  0.465123  1
  Si  Si1956  1  0.187353  0.173434  0.465122  1
  Si  Si1957  1  0.812521  0.173438  0.465122  1
  Si  Si1958  1  0.205092  0.442325  0.507092  1
  Si  Si1959  1  0.794745  0.442251  0.507082  1
  Si  Si1960  1  0.794745  0.057717  0.507085  1
  Si  Si1961  1  0.205096  0.057646  0.507093  1
  Si  Si1962  1  0.300256  0.326712  0.515885  1
  Si  Si1963  1  0.699517  0.326703  0.515884  1
  Si  Si1964  1  0.699509  0.173252  0.515891  1
  Si  Si1965  1  0.300250  0.173263  0.515886  1
  Si  Si1966  1  0.499900  0.445072  0.497615  1
  Si  Si1967  1  0.499903  0.054896  0.497616  1
  Si  Si1968  1  0.499924  0.436560  0.432851  1
  Si  Si1969  1  0.499944  0.063396  0.432852  1
  Si  Si1970  1  0.499936  0.327109  0.445367  1
  Si  Si1971  1  0.499921  0.172855  0.445367  1
  Si  Si1972  1  0.499887  0.326402  0.508947  1
  Si  Si1973  1  0.499895  0.173552  0.508951  1
  Si  Si1974  1  -0.000000  0.371186  0.439674  1
  Si  Si1975  1  0.000000  0.128781  0.439674  1
  Si  Si1976  1  -0.000000  0.371001  0.457528  1
  Si  Si1977  1  -0.000000  0.826326  0.388942  1
  Si  Si1978  1  0.499999  0.628944  0.321129  1
  Si  Si1979  1  0.000000  0.673652  0.388939  1
  Si  Si1980  1  0.309971  0.872137  0.409241  1
  Si  Si1981  1  0.689852  0.872349  0.409255  1
  Si  Si1982  1  0.689846  0.627834  0.409238  1
  Si  Si1983  1  0.309947  0.627603  0.409253  1
  Si  Si1984  1  0.292983  0.939727  0.384802  1
  Si  Si1985  1  0.706513  0.940140  0.384796  1
  Si  Si1986  1  0.706846  0.560251  0.384798  1
  Si  Si1987  1  0.293311  0.559833  0.384794  1
  Si  Si1988  1  0.191300  0.972081  0.369586  1
  Si  Si1989  1  0.808635  0.972289  0.369594  1
  Si  Si1990  1  0.808549  0.527872  0.369584  1
  Si  Si1991  1  0.191199  0.527646  0.369593  1
  Si  Si1992  1  0.202640  0.938130  0.352301  1
  Si  Si1993  1  0.797395  0.938164  0.352311  1
  Si  Si1994  1  0.797317  0.561778  0.352298  1
  Si  Si1995  1  0.202564  0.561740  0.352309  1
  Si  Si1996  1  0.196776  0.869366  0.327766  1
  Si  Si1997  1  0.803189  0.869383  0.327769  1
  Si  Si1998  1  0.803199  0.630557  0.327764  1
  Si  Si1999  1  0.196786  0.630525  0.327768  1
  Si  Si2000  1  0.298050  0.826501  0.342858  1
  Si  Si2001  1  0.701955  0.826557  0.342864  1
  Si  Si2002  1  0.701907  0.673412  0.342855  1
  Si  Si2003  1  0.298001  0.673354  0.342864  1
  Si  Si2004  1  0.312587  0.826507  0.313536  1
  Si  Si2005  1  0.687417  0.826513  0.313537  1
  Si  Si2006  1  0.687407  0.673413  0.313534  1
  Si  Si2007  1  0.312578  0.673406  0.313537  1
  Si  Si2008  1  0.204791  0.826518  0.394557  1
  Si  Si2009  1  0.795664  0.827309  0.394589  1
  Si  Si2010  1  0.795024  0.673455  0.394554  1
  Si  Si2011  1  0.204153  0.672664  0.394587  1
  Si  Si2012  1  0.500043  0.561464  0.390035  1
  Si  Si2013  1  0.499789  0.938521  0.390039  1
  Si  Si2014  1  0.000000  0.558067  0.377093  1
  Si  Si2015  1  -0.000000  0.941918  0.377096  1
  Si  Si2016  1  0.000000  0.936527  0.345808  1
  Si  Si2017  1  0.000000  0.563371  0.345805  1
  Si  Si2018  1  0.000000  0.827081  0.333291  1
  Si  Si2019  1  0.000000  0.672827  0.333290  1
  Si  Si2020  1  0.499958  0.827127  0.402315  1
  Si  Si2021  1  0.499845  0.672833  0.402313  1
  Si  Si2022  1  0.500001  0.871158  0.338984  1
  Si  Si2023  1  0.499953  0.628752  0.338983  1
  Si  Si2024  1  0.500003  0.870976  0.321130  1
  Si  Si2025  1  0.500151  0.173655  0.389719  1
  Si  Si2026  1  0.499677  0.326329  0.389717  1
  Si  Si2027  1  0.500010  0.025610  0.339243  1
  Si  Si2028  1  0.499942  0.474298  0.339241  1
  Si  Si2029  1  0.500016  0.025415  0.321315  1
  Si  Si2030  1  0.500006  0.474506  0.321313  1
  Si  Si2031  1  0.000000  0.173526  0.345453  1
  Si  Si2032  1  0.802141  0.475326  0.328063  1
  Si  Si2033  1  0.197848  0.475299  0.328067  1
  Si  Si2034  1  0.197833  0.024596  0.328065  1
  Si  Si2035  1  0.802120  0.024608  0.328069  1
  Si  Si2036  1  0.809969  0.372355  0.369404  1
  Si  Si2037  1  0.189854  0.372127  0.369418  1
  Si  Si2038  1  0.189879  0.127596  0.369405  1
  Si  Si2039  1  0.809973  0.127810  0.369421  1
  Si  Si2040  1  0.793317  0.440143  0.393862  1
  Si  Si2041  1  0.206845  0.439725  0.393859  1
  Si  Si2042  1  0.206516  0.059839  0.393866  1
  Si  Si2043  1  0.792982  0.060250  0.393860  1
  Si  Si2044  1  0.689222  0.441045  0.313425  1
  Si  Si2045  1  0.310781  0.441034  0.313428  1
  Si  Si2046  1  0.310794  0.058881  0.313429  1
  Si  Si2047  1  0.689233  0.058889  0.313429  1
  Si  Si2048  1  0.691194  0.472316  0.409063  1
  Si  Si2049  1  0.308530  0.472086  0.409074  1
  Si  Si2050  1  0.308630  0.027657  0.409067  1
  Si  Si2051  1  0.691279  0.027864  0.409074  1
  Si  Si2052  1  0.705125  0.442270  0.343586  1
  Si  Si2053  1  0.294777  0.442259  0.343595  1
  Si  Si2054  1  0.294826  0.057639  0.343590  1
  Si  Si2055  1  0.705176  0.057643  0.343597  1
  Si  Si2056  1  0.704159  0.327310  0.384070  1
  Si  Si2057  1  0.295031  0.326519  0.384102  1
  Si  Si2058  1  0.295668  0.172665  0.384072  1
  Si  Si2059  1  0.704798  0.173455  0.384104  1
  Si  Si2060  1  0.800350  0.326706  0.352384  1
  Si  Si2061  1  0.199611  0.326660  0.352393  1
  Si  Si2062  1  0.199574  0.173210  0.352386  1
  Si  Si2063  1  0.800308  0.173256  0.352394  1
  Si  Si2064  1  -0.000000  0.445042  0.334118  1
  Si  Si2065  1  0.000000  0.054858  0.334120  1
  Si  Si2066  1  0.000000  0.061471  0.388624  1
  Si  Si2067  1  0.000000  0.438510  0.388620  1
  Si  Si2068  1  0.499994  0.058077  0.401567  1
  Si  Si2069  1  0.499819  0.441916  0.401564  1
  Si  Si2070  1  -0.000000  0.327123  0.376344  1
  Si  Si2071  1  0.000000  0.172827  0.376344  1
  Si  Si2072  1  0.000000  0.326376  0.345451  1
  Si  Si2073  1  0.500087  0.673681  0.879429  1
  Si  Si2074  1  0.500046  0.826355  0.879429  1
  Si  Si2075  1  0.810074  0.872213  0.899741  1
  Si  Si2076  1  0.189929  0.872257  0.899734  1
  Si  Si2077  1  0.189981  0.627704  0.899733  1
  Si  Si2078  1  0.810051  0.627723  0.899735  1
  Si  Si2079  1  0.793014  0.940050  0.875289  1
  Si  Si2080  1  0.206532  0.939841  0.875281  1
  Si  Si2081  1  0.206607  0.560135  0.875281  1
  Si  Si2082  1  0.793066  0.560004  0.875288  1
  Si  Si2083  1  0.691459  0.972165  0.860066  1
  Si  Si2084  1  0.308764  0.972214  0.860087  1
  Si  Si2085  1  0.308805  0.527758  0.860086  1
  Si  Si2086  1  0.691435  0.527778  0.860069  1
  Si  Si2087  1  0.704625  0.826961  0.885060  1
  Si  Si2088  1  0.295524  0.826933  0.885065  1
  Si  Si2089  1  0.295564  0.673063  0.885065  1
  Si  Si2090  1  0.704707  0.673118  0.885052  1
  Si  Si2091  1  -0.000000  0.561477  0.880522  1
  Si  Si2092  1  -0.000000  0.938499  0.880526  1
  Si  Si2093  1  0.500197  0.558100  0.867581  1
  Si  Si2094  1  0.500196  0.941933  0.867581  1
  Si  Si2095  1  0.000000  0.827110  0.892802  1
  Si  Si2096  1  -0.000000  0.672817  0.892803  1
  Si  Si2097  1  0.000000  0.173673  0.880210  1
  Si  Si2098  1  0.000000  0.326344  0.880209  1
  Si  Si2099  1  0.310033  0.372248  0.859900  1
  Si  Si2100  1  0.689895  0.372255  0.859900  1
  Si  Si2101  1  0.689918  0.127698  0.859907  1
  Si  Si2102  1  0.309982  0.127725  0.859901  1
  Si  Si2103  1  0.293071  0.440020  0.884346  1
  Si  Si2104  1  0.706589  0.439898  0.884353  1
  Si  Si2105  1  0.706538  0.060155  0.884355  1
  Si  Si2106  1  0.293000  0.059954  0.884345  1
  Si  Si2107  1  0.191464  0.472176  0.899566  1
  Si  Si2108  1  0.808775  0.472213  0.899551  1
  Si  Si2109  1  0.808784  0.027712  0.899548  1
  Si  Si2110  1  0.191419  0.027786  0.899567  1
  Si  Si2111  1  0.204651  0.326917  0.874582  1
  Si  Si2112  1  0.795542  0.326972  0.874567  1
  Si  Si2113  1  0.795468  0.173102  0.874576  1
  Si  Si2114  1  0.204613  0.173077  0.874583  1
  Si  Si2115  1  0.499819  0.061463  0.879112  1
  Si  Si2116  1  0.499874  0.438531  0.879108  1
  Si  Si2117  1  0.000000  0.058066  0.892053  1
  Si  Si2118  1  -0.000000  0.441942  0.892053  1
  Si  Si2119  1  0.499934  0.327119  0.866834  1
  Si  Si2120  1  0.499905  0.172823  0.866834  1
  Si  Si2121  1  -0.000000  0.525639  0.766409  1
  Si  Si2122  1  -0.000000  0.974327  0.766410  1
  Si  Si2123  1  0.000000  0.525439  0.784336  1
  Si  Si2124  1  0.000000  0.974538  0.784337  1
  Si  Si2125  1  0.000000  0.628966  0.811619  1
  Si  Si2126  1  0.302065  0.975330  0.777585  1
  Si  Si2127  1  0.697773  0.975356  0.777587  1
  Si  Si2128  1  0.697807  0.524634  0.777582  1
  Si  Si2129  1  0.302092  0.524617  0.777587  1
  Si  Si2130  1  0.189160  0.941062  0.792225  1
  Si  Si2131  1  0.810728  0.941074  0.792223  1
  Si  Si2132  1  0.810720  0.558913  0.792221  1
  Si  Si2133  1  0.189159  0.558905  0.792224  1
  Si  Si2134  1  0.702567  0.938171  0.842783  1
  Si  Si2135  1  0.297321  0.938180  0.842802  1
  Si  Si2136  1  0.297331  0.561787  0.842801  1
  Si  Si2137  1  0.702581  0.561773  0.842786  1
  Si  Si2138  1  0.696685  0.869419  0.818252  1
  Si  Si2139  1  0.303100  0.869389  0.818260  1
  Si  Si2140  1  0.303112  0.630583  0.818260  1
  Si  Si2141  1  0.696702  0.630549  0.818252  1
  Si  Si2142  1  0.797988  0.826540  0.833341  1
  Si  Si2143  1  0.201890  0.826563  0.833356  1
  Si  Si2144  1  0.201907  0.673412  0.833356  1
  Si  Si2145  1  0.798002  0.673400  0.833343  1
  Si  Si2146  1  0.812501  0.826539  0.804024  1
  Si  Si2147  1  0.187322  0.826533  0.804027  1
  Si  Si2148  1  0.187336  0.673433  0.804027  1
  Si  Si2149  1  0.812509  0.673436  0.804024  1
  Si  Si2150  1  0.205131  0.942284  0.762058  1
  Si  Si2151  1  0.794783  0.942292  0.762064  1
  Si  Si2152  1  0.794742  0.557674  0.762054  1
  Si  Si2153  1  0.205091  0.557665  0.762064  1
  Si  Si2154  1  0.300274  0.826682  0.753259  1
  Si  Si2155  1  0.699534  0.826728  0.753268  1
  Si  Si2156  1  0.699576  0.673278  0.753257  1
  Si  Si2157  1  0.300318  0.673232  0.753266  1
  Si  Si2158  1  0.499923  0.945073  0.771534  1
  Si  Si2159  1  0.499937  0.554883  0.771532  1
  Si  Si2160  1  0.499902  0.936557  0.836295  1
  Si  Si2161  1  0.499923  0.563399  0.836296  1
  Si  Si2162  1  0.499913  0.827105  0.823779  1
  Si  Si2163  1  0.499928  0.672851  0.823779  1
  Si  Si2164  1  0.499883  0.826403  0.760201  1
  Si  Si2165  1  0.499967  0.673553  0.760199  1
  Si  Si2166  1  0.000000  0.871196  0.829473  1
  Si  Si2167  1  0.000000  0.628776  0.829473  1
  Si  Si2168  1  0.000000  0.871010  0.811619  1
  Si  Si2169  1  0.000000  0.025649  0.829732  1
  Si  Si2170  1  0.000000  0.474322  0.829731  1
  Si  Si2171  1  -0.000000  0.025448  0.811804  1
  Si  Si2172  1  0.000000  0.474527  0.811803  1
  Si  Si2173  1  -0.000000  0.128976  0.784521  1
  Si  Si2174  1  0.302040  0.475358  0.818557  1
  Si  Si2175  1  0.697748  0.475318  0.818552  1
  Si  Si2176  1  0.697759  0.024651  0.818554  1
  Si  Si2177  1  0.302046  0.024616  0.818558  1
  Si  Si2178  1  0.189126  0.441061  0.803919  1
  Si  Si2179  1  0.810686  0.441065  0.803914  1
  Si  Si2180  1  0.810712  0.058917  0.803918  1
  Si  Si2181  1  0.189150  0.058910  0.803918  1
  Si  Si2182  1  0.702521  0.438198  0.753339  1
  Si  Si2183  1  0.297274  0.438155  0.753351  1
  Si  Si2184  1  0.297341  0.061763  0.753343  1
  Si  Si2185  1  0.702591  0.061794  0.753351  1
  Si  Si2186  1  0.696738  0.369408  0.777880  1
  Si  Si2187  1  0.303151  0.369387  0.777886  1
  Si  Si2188  1  0.303131  0.130556  0.777883  1
  Si  Si2189  1  0.696718  0.130587  0.777884  1
  Si  Si2190  1  0.797961  0.326583  0.762784  1
  Si  Si2191  1  0.201865  0.326526  0.762795  1
  Si  Si2192  1  0.201906  0.173380  0.762787  1
  Si  Si2193  1  0.798000  0.173438  0.762793  1
  Si  Si2194  1  0.812517  0.326537  0.792112  1
  Si  Si2195  1  0.187348  0.326533  0.792116  1
  Si  Si2196  1  0.187353  0.173434  0.792115  1
  Si  Si2197  1  0.812521  0.173438  0.792115  1
  Si  Si2198  1  0.205092  0.442325  0.834085  1
  Si  Si2199  1  0.794745  0.442251  0.834075  1
  Si  Si2200  1  0.794745  0.057717  0.834078  1
  Si  Si2201  1  0.205096  0.057646  0.834085  1
  Si  Si2202  1  0.300256  0.326712  0.842878  1
  Si  Si2203  1  0.699517  0.326703  0.842877  1
  Si  Si2204  1  0.699509  0.173252  0.842884  1
  Si  Si2205  1  0.300250  0.173263  0.842878  1
  Si  Si2206  1  0.499900  0.445072  0.824607  1
  Si  Si2207  1  0.499903  0.054896  0.824608  1
  Si  Si2208  1  0.499924  0.436560  0.759843  1
  Si  Si2209  1  0.499944  0.063396  0.759845  1
  Si  Si2210  1  0.499936  0.327109  0.772360  1
  Si  Si2211  1  0.499921  0.172855  0.772360  1
  Si  Si2212  1  0.499887  0.326402  0.835940  1
  Si  Si2213  1  0.499895  0.173552  0.835943  1
  Si  Si2214  1  0.000000  0.371186  0.766667  1
  Si  Si2215  1  -0.000000  0.128781  0.766667  1
  Si  Si2216  1  -0.000000  0.371001  0.784521  1
  Si  Si2217  1  0.000000  0.826326  0.715934  1
  Si  Si2218  1  0.499999  0.628944  0.648122  1
  Si  Si2219  1  0.000000  0.673652  0.715932  1
  Si  Si2220  1  0.309971  0.872137  0.736233  1
  Si  Si2221  1  0.689852  0.872349  0.736248  1
  Si  Si2222  1  0.689846  0.627834  0.736231  1
  Si  Si2223  1  0.309947  0.627603  0.736246  1
  Si  Si2224  1  0.292983  0.939727  0.711794  1
  Si  Si2225  1  0.706513  0.940140  0.711788  1
  Si  Si2226  1  0.706846  0.560251  0.711790  1
  Si  Si2227  1  0.293311  0.559833  0.711787  1
  Si  Si2228  1  0.191300  0.972081  0.696579  1
  Si  Si2229  1  0.808635  0.972289  0.696587  1
  Si  Si2230  1  0.808549  0.527872  0.696576  1
  Si  Si2231  1  0.191199  0.527646  0.696585  1
  Si  Si2232  1  0.202640  0.938130  0.679294  1
  Si  Si2233  1  0.797395  0.938164  0.679303  1
  Si  Si2234  1  0.797317  0.561778  0.679291  1
  Si  Si2235  1  0.202564  0.561740  0.679302  1
  Si  Si2236  1  0.196776  0.869366  0.654759  1
  Si  Si2237  1  0.803189  0.869383  0.654762  1
  Si  Si2238  1  0.803199  0.630557  0.654757  1
  Si  Si2239  1  0.196786  0.630525  0.654761  1
  Si  Si2240  1  0.298050  0.826501  0.669850  1
  Si  Si2241  1  0.701955  0.826557  0.669857  1
  Si  Si2242  1  0.701907  0.673412  0.669848  1
  Si  Si2243  1  0.298001  0.673354  0.669857  1
  Si  Si2244  1  0.312587  0.826507  0.640529  1
  Si  Si2245  1  0.687417  0.826513  0.640529  1
  Si  Si2246  1  0.687407  0.673413  0.640526  1
  Si  Si2247  1  0.312578  0.673406  0.640530  1
  Si  Si2248  1  0.204791  0.826518  0.721550  1
  Si  Si2249  1  0.795664  0.827309  0.721581  1
  Si  Si2250  1  0.795024  0.673455  0.721547  1
  Si  Si2251  1  0.204153  0.672664  0.721579  1
  Si  Si2252  1  0.500043  0.561464  0.717027  1
  Si  Si2253  1  0.499789  0.938521  0.717032  1
  Si  Si2254  1  0.000000  0.558067  0.704085  1
  Si  Si2255  1  0.000000  0.941918  0.704089  1
  Si  Si2256  1  -0.000000  0.936527  0.672800  1
  Si  Si2257  1  -0.000000  0.563371  0.672798  1
  Si  Si2258  1  0.000000  0.827081  0.660283  1
  Si  Si2259  1  0.000000  0.672827  0.660282  1
  Si  Si2260  1  0.499958  0.827127  0.729307  1
  Si  Si2261  1  0.499845  0.672833  0.729306  1
  Si  Si2262  1  0.500001  0.871158  0.665977  1
  Si  Si2263  1  0.499953  0.628752  0.665976  1
  Si  Si2264  1  0.500003  0.870976  0.648123  1
  Si  Si2265  1  0.500151  0.173655  0.716712  1
  Si  Si2266  1  0.499677  0.326329  0.716710  1
  Si  Si2267  1  0.500010  0.025610  0.666236  1
  Si  Si2268  1  0.499942  0.474298  0.666234  1
  Si  Si2269  1  0.500016  0.025415  0.648308  1
  Si  Si2270  1  0.500006  0.474506  0.648306  1
  Si  Si2271  1  0.000000  0.173526  0.672446  1
  Si  Si2272  1  0.802141  0.475326  0.655056  1
  Si  Si2273  1  0.197848  0.475299  0.655060  1
  Si  Si2274  1  0.197833  0.024596  0.655058  1
  Si  Si2275  1  0.802120  0.024608  0.655062  1
  Si  Si2276  1  0.809969  0.372355  0.696396  1
  Si  Si2277  1  0.189854  0.372127  0.696411  1
  Si  Si2278  1  0.189879  0.127596  0.696398  1
  Si  Si2279  1  0.809973  0.127810  0.696413  1
  Si  Si2280  1  0.793317  0.440143  0.720855  1
  Si  Si2281  1  0.206845  0.439725  0.720851  1
  Si  Si2282  1  0.206516  0.059839  0.720858  1
  Si  Si2283  1  0.792982  0.060250  0.720852  1
  Si  Si2284  1  0.689222  0.441045  0.640418  1
  Si  Si2285  1  0.310781  0.441034  0.640421  1
  Si  Si2286  1  0.310794  0.058881  0.640422  1
  Si  Si2287  1  0.689233  0.058889  0.640421  1
  Si  Si2288  1  0.691194  0.472316  0.736056  1
  Si  Si2289  1  0.308530  0.472086  0.736066  1
  Si  Si2290  1  0.308630  0.027657  0.736060  1
  Si  Si2291  1  0.691279  0.027864  0.736066  1
  Si  Si2292  1  0.705125  0.442270  0.670579  1
  Si  Si2293  1  0.294777  0.442259  0.670588  1
  Si  Si2294  1  0.294826  0.057639  0.670582  1
  Si  Si2295  1  0.705176  0.057643  0.670589  1
  Si  Si2296  1  0.704159  0.327310  0.711063  1
  Si  Si2297  1  0.295031  0.326519  0.711095  1
  Si  Si2298  1  0.295668  0.172665  0.711065  1
  Si  Si2299  1  0.704798  0.173455  0.711096  1
  Si  Si2300  1  0.800350  0.326706  0.679377  1
  Si  Si2301  1  0.199611  0.326660  0.679385  1
  Si  Si2302  1  0.199574  0.173210  0.679378  1
  Si  Si2303  1  0.800308  0.173256  0.679387  1
  Si  Si2304  1  0.000000  0.445042  0.661110  1
  Si  Si2305  1  0.000000  0.054858  0.661113  1
  Si  Si2306  1  -0.000000  0.061471  0.715617  1
  Si  Si2307  1  0.000000  0.438510  0.715613  1
  Si  Si2308  1  0.499994  0.058077  0.728559  1
  Si  Si2309  1  0.499819  0.441916  0.728557  1
  Si  Si2310  1  -0.000000  0.327123  0.703336  1
  Si  Si2311  1  0.000000  0.172827  0.703337  1
  Si  Si2312  1  -0.000000  0.326376  0.672444  1
  H  H2313  1  0.214713  0.944746  0.029100  1
  H  H2314  1  0.785389  0.944854  0.029108  1
  H  H2315  1  0.785177  0.555180  0.029095  1
  H  H2316  1  0.214526  0.555051  0.029107  1
  H  H2317  1  0.786760  0.345526  0.028923  1
  H  H2318  1  0.213210  0.345364  0.028935  1
  H  H2319  1  0.213125  0.154420  0.028925  1
  H  H2320  1  0.786668  0.154586  0.028938  1
  H  H2321  1  0.786715  0.845482  0.913232  1
  H  H2322  1  0.213151  0.845428  0.913222  1
  H  H2323  1  0.213179  0.654537  0.913221  1
  H  H2324  1  0.786719  0.654502  0.913224  1
  H  H2325  1  0.214825  0.444821  0.913060  1
  H  H2326  1  0.785492  0.444788  0.913043  1
  H  H2327  1  0.785441  0.055106  0.913042  1
  H  H2328  1  0.214811  0.055109  0.913061  1
