# generated using pymatgen
data_Si83(HO42)4
_symmetry_space_group_name_H-M   'P 1'
_cell_length_a   26.79739289
_cell_length_b   12.91472158
_cell_length_c   88.15740474
_cell_angle_alpha   90.00000000
_cell_angle_beta   90.00000000
_cell_angle_gamma   90.00000000
_symmetry_Int_Tables_number   1
_chemical_formula_structural   Si83(HO42)4
_chemical_formula_sum   'Si332 H16 O672'
_cell_volume   30509.5911732
_cell_formula_units_Z   4
loop_
 _symmetry_equiv_pos_site_id
 _symmetry_equiv_pos_as_xyz
  1  'x, y, z'
loop_
 _atom_site_type_symbol
 _atom_site_label
 _atom_site_symmetry_multiplicity
 _atom_site_fract_x
 _atom_site_fract_y
 _atom_site_fract_z
 _atom_site_occupancy
  O  O1  1  0.171724  0.500053  0.118543  1
  O  O2  1  0.068335  0.000000  0.087116  1
  O  O3  1  0.238131  0.641926  0.118655  1
  O  O4  1  0.067961  0.858162  0.066927  1
  O  O5  1  0.238139  0.358148  0.118654  1
  O  O6  1  0.067960  0.141927  0.066928  1
  O  O7  1  0.141931  0.692338  0.113713  1
  O  O8  1  0.084214  0.807742  0.096173  1
  O  O9  1  0.141925  0.307726  0.113716  1
  O  O10  1  0.084223  0.192347  0.096172  1
  O  O11  1  0.301754  0.500060  0.119762  1
  O  O12  1  0.047822  0.669080  0.114575  1
  O  O13  1  0.081400  0.831009  0.124777  1
  O  O14  1  0.047819  0.331024  0.114572  1
  O  O15  1  0.081397  0.169065  0.124777  1
  O  O16  1  0.663692  0.326880  0.111376  1
  O  O17  1  0.591908  0.673224  0.089553  1
  O  O18  1  0.408055  0.326877  0.089552  1
  O  O19  1  0.591910  0.326887  0.089554  1
  O  O20  1  0.408058  0.673220  0.089554  1
  O  O21  1  0.432226  -0.000000  0.118718  1
  O  O22  1  0.567754  -0.000000  0.118718  1
  O  O23  1  0.336288  0.673212  0.111378  1
  O  O24  1  0.499993  0.863371  0.119183  1
  O  O25  1  0.663690  0.673210  0.111374  1
  O  O26  1  0.499989  0.136730  0.119182  1
  O  O27  1  0.411607  0.799751  0.112453  1
  O  O28  1  0.588377  0.799770  0.112451  1
  O  O29  1  0.588370  0.200333  0.112450  1
  O  O30  1  0.411603  0.200322  0.112452  1
  O  O31  1  0.421072  0.602930  0.115331  1
  O  O32  1  0.578903  0.602942  0.115329  1
  O  O33  1  0.578906  0.397163  0.115330  1
  O  O34  1  0.421074  0.397158  0.115332  1
  O  O35  1  0.336294  0.326848  0.111374  1
  O  O36  1  0.499991  0.500037  0.119131  1
  O  O37  1  0.931643  -0.000000  0.087114  1
  O  O38  1  0.828252  0.500038  0.118540  1
  O  O39  1  0.932018  0.141939  0.066927  1
  O  O40  1  0.761848  0.358167  0.118658  1
  O  O41  1  0.932013  0.858160  0.066926  1
  O  O42  1  0.761839  0.641923  0.118655  1
  O  O43  1  0.915759  0.192357  0.096172  1
  O  O44  1  0.858053  0.307741  0.113712  1
  O  O45  1  0.915757  0.807740  0.096172  1
  O  O46  1  0.858055  0.692353  0.113712  1
  O  O47  1  0.698226  0.500043  0.119759  1
  O  O48  1  0.918587  0.169079  0.124777  1
  O  O49  1  0.952158  0.331013  0.114572  1
  O  O50  1  0.918581  0.831010  0.124777  1
  O  O51  1  0.952155  0.669080  0.114572  1
  O  O52  1  0.000000  0.500045  0.118460  1
  O  O53  1  -0.000000  0.131485  0.086700  1
  O  O54  1  0.000000  0.868606  0.086701  1
  O  O55  1  0.068343  -0.000000  0.191513  1
  O  O56  1  0.328267  0.000000  0.270521  1
  O  O57  1  0.171713  0.499984  0.160096  1
  O  O58  1  0.173029  0.368628  0.139311  1
  O  O59  1  0.067966  0.141940  0.211706  1
  O  O60  1  0.261829  0.858169  0.270633  1
  O  O61  1  0.238143  0.358171  0.159997  1
  O  O62  1  0.067925  0.858152  0.211702  1
  O  O63  1  0.238108  0.641940  0.159941  1
  O  O64  1  0.261829  0.141963  0.270633  1
  O  O65  1  0.084219  0.192368  0.182458  1
  O  O66  1  0.141933  0.307788  0.164919  1
  O  O67  1  0.084226  0.807739  0.182462  1
  O  O68  1  0.141918  0.692390  0.164925  1
  O  O69  1  0.091917  0.173239  0.241540  1
  O  O70  1  0.163692  0.826889  0.263359  1
  O  O71  1  0.091913  0.826879  0.241539  1
  O  O72  1  0.163697  0.173236  0.263358  1
  O  O73  1  0.064339  0.000000  0.231043  1
  O  O74  1  0.198218  0.000000  0.271740  1
  O  O75  1  0.301754  0.500063  0.158879  1
  O  O76  1  0.068605  -0.000000  0.139317  1
  O  O77  1  0.067747  0.500055  0.270705  1
  O  O78  1  0.088372  0.299784  0.264434  1
  O  O79  1  0.088375  0.700331  0.264434  1
  O  O80  1  0.078900  0.102941  0.267313  1
  O  O81  1  0.078896  0.897165  0.267313  1
  O  O82  1  0.081395  0.169088  0.153857  1
  O  O83  1  0.047822  0.331010  0.164061  1
  O  O84  1  0.081394  0.831021  0.153853  1
  O  O85  1  0.047812  0.669063  0.164060  1
  O  O86  1  0.304450  0.359133  0.139316  1
  O  O87  1  0.304430  0.640966  0.139317  1
  O  O88  1  0.173185  0.631516  0.139324  1
  O  O89  1  0.431634  0.500056  0.239101  1
  O  O90  1  0.568340  0.500067  0.239101  1
  O  O91  1  0.499986  0.631518  0.238684  1
  O  O92  1  0.566223  0.136738  0.139314  1
  O  O93  1  0.499990  0.368612  0.238688  1
  O  O94  1  0.432011  0.641955  0.218911  1
  O  O95  1  0.567967  0.358174  0.218911  1
  O  O96  1  0.432014  0.358170  0.218911  1
  O  O97  1  0.567960  0.641967  0.218910  1
  O  O98  1  0.641920  0.192393  0.265690  1
  O  O99  1  0.415747  0.692369  0.248154  1
  O  O100  1  0.358048  0.807763  0.265694  1
  O  O101  1  0.584225  0.307765  0.248152  1
  O  O102  1  0.641931  0.807797  0.265696  1
  O  O103  1  0.415756  0.307759  0.248155  1
  O  O104  1  0.358047  0.192363  0.265694  1
  O  O105  1  0.584219  0.692391  0.248156  1
  O  O106  1  0.408066  0.673231  0.189076  1
  O  O107  1  0.591910  0.326892  0.189076  1
  O  O108  1  0.408066  0.326877  0.189078  1
  O  O109  1  0.591915  0.673241  0.189074  1
  O  O110  1  0.435644  0.500051  0.199574  1
  O  O111  1  0.564335  0.500059  0.199571  1
  O  O112  1  0.499988  0.640983  0.198756  1
  O  O113  1  0.499993  0.359150  0.198758  1
  O  O114  1  0.567753  0.000000  0.159914  1
  O  O115  1  0.432227  -0.000000  0.159914  1
  O  O116  1  0.499994  0.863387  0.159451  1
  O  O117  1  0.499989  0.136732  0.159449  1
  O  O118  1  0.588375  0.799796  0.166182  1
  O  O119  1  0.411613  0.799793  0.166183  1
  O  O120  1  0.411604  0.200320  0.166182  1
  O  O121  1  0.588363  0.200342  0.166182  1
  O  O122  1  0.578899  0.602949  0.163303  1
  O  O123  1  0.421080  0.602934  0.163303  1
  O  O124  1  0.421078  0.397175  0.163304  1
  O  O125  1  0.578899  0.397189  0.163304  1
  O  O126  1  0.547817  0.169074  0.266553  1
  O  O127  1  0.418580  0.669079  0.276762  1
  O  O128  1  0.452155  0.831045  0.266553  1
  O  O129  1  0.581398  0.331027  0.276763  1
  O  O130  1  0.547821  0.831034  0.266554  1
  O  O131  1  0.418582  0.331034  0.276763  1
  O  O132  1  0.452155  0.169079  0.266554  1
  O  O133  1  0.581395  0.669090  0.276759  1
  O  O134  1  0.433588  0.500039  0.139315  1
  O  O135  1  0.499992  0.500067  0.159501  1
  O  O136  1  0.336266  0.673233  0.167260  1
  O  O137  1  0.499983  0.000000  0.270441  1
  O  O138  1  0.663701  0.673229  0.167258  1
  O  O139  1  0.663693  0.326895  0.167258  1
  O  O140  1  0.336284  0.326881  0.167262  1
  O  O141  1  0.566393  0.500058  0.139314  1
  O  O142  1  0.566230  0.863384  0.139314  1
  O  O143  1  0.433759  0.863377  0.139314  1
  O  O144  1  0.433752  0.136725  0.139314  1
  O  O145  1  0.828264  0.500060  0.160094  1
  O  O146  1  0.671711  0.000000  0.270518  1
  O  O147  1  0.931642  0.000000  0.191515  1
  O  O148  1  0.826843  0.368602  0.139317  1
  O  O149  1  0.761830  0.641949  0.159982  1
  O  O150  1  0.738104  0.141943  0.270677  1
  O  O151  1  0.932014  0.858168  0.211706  1
  O  O152  1  0.738148  0.858174  0.270618  1
  O  O153  1  0.761862  0.358177  0.159958  1
  O  O154  1  0.932014  0.141936  0.211705  1
  O  O155  1  0.858050  0.692350  0.164920  1
  O  O156  1  0.915763  0.807759  0.182461  1
  O  O157  1  0.858052  0.307737  0.164924  1
  O  O158  1  0.915752  0.192360  0.182461  1
  O  O159  1  0.826918  0.631481  0.139310  1
  O  O160  1  0.836272  0.173236  0.263355  1
  O  O161  1  0.908071  0.826882  0.241538  1
  O  O162  1  0.836287  0.826883  0.263355  1
  O  O163  1  0.908070  0.173235  0.241538  1
  O  O164  1  0.698211  0.500050  0.158876  1
  O  O165  1  0.801757  0.000000  0.271736  1
  O  O166  1  0.935644  0.000000  0.231042  1
  O  O167  1  -0.000000  -0.000000  0.271116  1
  O  O168  1  0.932232  0.500067  0.270705  1
  O  O169  1  -0.000000  0.868590  0.191941  1
  O  O170  1  0.000000  0.859137  0.231859  1
  O  O171  1  0.911610  0.299780  0.264435  1
  O  O172  1  0.911609  0.700341  0.264436  1
  O  O173  1  0.921079  0.102943  0.267313  1
  O  O174  1  0.921074  0.897176  0.267313  1
  O  O175  1  0.952153  0.669075  0.164062  1
  O  O176  1  0.918587  0.831018  0.153854  1
  O  O177  1  0.952156  0.331030  0.164060  1
  O  O178  1  0.918580  0.169085  0.153854  1
  O  O179  1  -0.000000  0.500046  0.160173  1
  O  O180  1  -0.000000  0.368545  0.139317  1
  O  O181  1  0.695543  0.640968  0.139311  1
  O  O182  1  0.000000  0.631554  0.139316  1
  O  O183  1  0.000000  0.131489  0.191929  1
  O  O184  1  0.695550  0.359136  0.139316  1
  O  O185  1  0.931380  0.000000  0.139317  1
  O  O186  1  -0.000000  0.363392  0.271170  1
  O  O187  1  0.000000  0.868546  0.139316  1
  O  O188  1  -0.000000  0.636725  0.271168  1
  O  O189  1  0.000000  0.131546  0.139318  1
  O  O190  1  -0.000000  0.140964  0.231859  1
  O  O191  1  0.328255  0.000000  0.312075  1
  O  O192  1  0.171724  0.500053  0.422511  1
  O  O193  1  0.068335  0.000000  0.391084  1
  O  O194  1  0.261844  0.141945  0.311962  1
  O  O195  1  0.238131  0.641926  0.422622  1
  O  O196  1  0.067961  0.858162  0.370894  1
  O  O197  1  0.238139  0.358148  0.422622  1
  O  O198  1  0.261841  0.858172  0.311962  1
  O  O199  1  0.067960  0.141927  0.370896  1
  O  O200  1  0.141931  0.692338  0.417680  1
  O  O201  1  0.084214  0.807742  0.400140  1
  O  O202  1  0.141925  0.307726  0.417684  1
  O  O203  1  0.084223  0.192347  0.400140  1
  O  O204  1  0.163696  0.173228  0.319241  1
  O  O205  1  0.091915  0.826879  0.341061  1
  O  O206  1  0.163696  0.826890  0.319241  1
  O  O207  1  0.091914  0.173221  0.341062  1
  O  O208  1  0.198223  -0.000000  0.310859  1
  O  O209  1  0.301754  0.500060  0.423730  1
  O  O210  1  0.064335  0.000000  0.351556  1
  O  O211  1  0.067745  0.500055  0.311898  1
  O  O212  1  0.088370  0.299772  0.318167  1
  O  O213  1  0.088375  0.700334  0.318166  1
  O  O214  1  0.078903  0.102942  0.315287  1
  O  O215  1  0.078902  0.897164  0.315287  1
  O  O216  1  0.047822  0.669080  0.418542  1
  O  O217  1  0.081400  0.831009  0.428744  1
  O  O218  1  0.047819  0.331024  0.418540  1
  O  O219  1  0.081397  0.169065  0.428745  1
  O  O220  1  0.066390  0.000000  0.291301  1
  O  O221  1  0.326920  0.868624  0.291305  1
  O  O222  1  0.326917  0.131500  0.291305  1
  O  O223  1  0.066219  0.363383  0.291302  1
  O  O224  1  0.195542  0.140984  0.291302  1
  O  O225  1  0.195541  0.859147  0.291302  1
  O  O226  1  0.066223  0.636718  0.291302  1
  O  O227  1  0.568327  0.500055  0.343500  1
  O  O228  1  0.431628  0.500048  0.343497  1
  O  O229  1  0.663692  0.326880  0.415343  1
  O  O230  1  0.499990  0.368561  0.291297  1
  O  O231  1  0.499984  0.631494  0.343925  1
  O  O232  1  0.499986  0.368613  0.343927  1
  O  O233  1  0.567960  0.641936  0.363688  1
  O  O234  1  0.432048  0.358153  0.363688  1
  O  O235  1  0.567966  0.358163  0.363689  1
  O  O236  1  0.432050  0.641936  0.363688  1
  O  O237  1  0.358052  0.192367  0.316903  1
  O  O238  1  0.584209  0.692352  0.334442  1
  O  O239  1  0.641919  0.807734  0.316899  1
  O  O240  1  0.415755  0.307740  0.334443  1
  O  O241  1  0.358049  0.807748  0.316903  1
  O  O242  1  0.584209  0.307755  0.334443  1
  O  O243  1  0.641923  0.192364  0.316901  1
  O  O244  1  0.415754  0.692352  0.334442  1
  O  O245  1  0.591908  0.673224  0.393521  1
  O  O246  1  0.408055  0.326877  0.393520  1
  O  O247  1  0.591910  0.326887  0.393522  1
  O  O248  1  0.408058  0.673220  0.393521  1
  O  O249  1  0.564329  0.500057  0.383026  1
  O  O250  1  0.435634  0.500051  0.383028  1
  O  O251  1  0.499990  0.640966  0.383844  1
  O  O252  1  0.499991  0.359128  0.383846  1
  O  O253  1  0.432226  0.000000  0.422686  1
  O  O254  1  0.567754  0.000000  0.422686  1
  O  O255  1  0.336288  0.673212  0.415346  1
  O  O256  1  0.499993  0.863371  0.423151  1
  O  O257  1  0.663690  0.673210  0.415342  1
  O  O258  1  0.499989  0.136730  0.423150  1
  O  O259  1  0.411607  0.799751  0.416420  1
  O  O260  1  0.588377  0.799770  0.416419  1
  O  O261  1  0.588370  0.200333  0.416417  1
  O  O262  1  0.411603  0.200322  0.416420  1
  O  O263  1  0.421072  0.602930  0.419299  1
  O  O264  1  0.578903  0.602942  0.419296  1
  O  O265  1  0.578906  0.397163  0.419297  1
  O  O266  1  0.421074  0.397158  0.419299  1
  O  O267  1  0.452159  0.169071  0.316043  1
  O  O268  1  0.581397  0.669077  0.305839  1
  O  O269  1  0.547820  0.831023  0.316043  1
  O  O270  1  0.418581  0.331039  0.305840  1
  O  O271  1  0.452160  0.831021  0.316045  1
  O  O272  1  0.581401  0.331028  0.305840  1
  O  O273  1  0.547826  0.169081  0.316043  1
  O  O274  1  0.418584  0.669079  0.305839  1
  O  O275  1  0.336294  0.326848  0.415341  1
  O  O276  1  0.499991  0.500037  0.423099  1
  O  O277  1  0.499988  0.631560  0.291299  1
  O  O278  1  0.431374  0.500055  0.291299  1
  O  O279  1  0.568608  0.500055  0.291298  1
  O  O280  1  0.499988  0.000000  0.312155  1
  O  O281  1  0.499990  0.131558  0.291300  1
  O  O282  1  0.499982  0.868551  0.291300  1
  O  O283  1  0.931643  -0.000000  0.391082  1
  O  O284  1  0.828252  0.500038  0.422507  1
  O  O285  1  0.671728  0.000000  0.312070  1
  O  O286  1  0.673206  0.131526  0.291292  1
  O  O287  1  0.932018  0.141939  0.370894  1
  O  O288  1  0.761848  0.358167  0.422626  1
  O  O289  1  0.738134  0.858163  0.311962  1
  O  O290  1  0.932013  0.858160  0.370893  1
  O  O291  1  0.738128  0.141942  0.311959  1
  O  O292  1  0.761839  0.641923  0.422623  1
  O  O293  1  0.915759  0.192357  0.400139  1
  O  O294  1  0.858053  0.307741  0.417679  1
  O  O295  1  0.915757  0.807740  0.400139  1
  O  O296  1  0.858055  0.692353  0.417680  1
  O  O297  1  0.908062  0.173225  0.341060  1
  O  O298  1  0.933585  0.000000  0.291300  1
  O  O299  1  0.836289  0.826869  0.319241  1
  O  O300  1  0.908056  0.826886  0.341061  1
  O  O301  1  0.836278  0.173222  0.319237  1
  O  O302  1  0.933756  0.636730  0.291300  1
  O  O303  1  0.935641  -0.000000  0.351554  1
  O  O304  1  0.698226  0.500043  0.423726  1
  O  O305  1  0.801752  0.000000  0.310853  1
  O  O306  1  0.804437  0.140975  0.291298  1
  O  O307  1  -0.000000  0.859133  0.350738  1
  O  O308  1  0.932227  0.500060  0.311899  1
  O  O309  1  0.933759  0.363390  0.291300  1
  O  O310  1  0.000000  0.636728  0.311434  1
  O  O311  1  0.911602  0.299783  0.318166  1
  O  O312  1  0.911602  0.700322  0.318164  1
  O  O313  1  0.921075  0.102945  0.315286  1
  O  O314  1  0.921072  0.897177  0.315285  1
  O  O315  1  0.918587  0.169079  0.428744  1
  O  O316  1  0.952158  0.331013  0.418539  1
  O  O317  1  0.918581  0.831010  0.428744  1
  O  O318  1  0.952155  0.669080  0.418540  1
  O  O319  1  -0.000000  0.140969  0.350740  1
  O  O320  1  0.000000  0.500045  0.422428  1
  O  O321  1  0.000000  0.363383  0.311433  1
  O  O322  1  -0.000000  0.000000  0.311485  1
  O  O323  1  -0.000000  0.131485  0.390668  1
  O  O324  1  0.000000  0.868606  0.390669  1
  O  O325  1  0.673031  0.868645  0.291306  1
  O  O326  1  0.804451  0.859143  0.291301  1
  O  O327  1  0.068343  0.000000  0.495481  1
  O  O328  1  0.328267  0.000000  0.574489  1
  O  O329  1  0.171713  0.499984  0.464063  1
  O  O330  1  0.173029  0.368628  0.443279  1
  O  O331  1  0.067966  0.141940  0.515673  1
  O  O332  1  0.261829  0.858169  0.574600  1
  O  O333  1  0.238143  0.358171  0.463965  1
  O  O334  1  0.067925  0.858152  0.515670  1
  O  O335  1  0.238108  0.641940  0.463909  1
  O  O336  1  0.261829  0.141963  0.574601  1
  O  O337  1  0.084219  0.192368  0.486425  1
  O  O338  1  0.141933  0.307788  0.468887  1
  O  O339  1  0.084226  0.807739  0.486430  1
  O  O340  1  0.141918  0.692390  0.468892  1
  O  O341  1  0.091917  0.173239  0.545508  1
  O  O342  1  0.163692  0.826889  0.567326  1
  O  O343  1  0.091913  0.826879  0.545506  1
  O  O344  1  0.163697  0.173236  0.567326  1
  O  O345  1  0.064339  0.000000  0.535011  1
  O  O346  1  0.198218  0.000000  0.575708  1
  O  O347  1  0.301754  0.500063  0.462846  1
  O  O348  1  0.068605  0.000000  0.443285  1
  O  O349  1  0.067747  0.500055  0.574673  1
  O  O350  1  0.088372  0.299784  0.568401  1
  O  O351  1  0.088375  0.700331  0.568402  1
  O  O352  1  0.078900  0.102941  0.571281  1
  O  O353  1  0.078896  0.897165  0.571281  1
  O  O354  1  0.081395  0.169088  0.457825  1
  O  O355  1  0.047822  0.331010  0.468029  1
  O  O356  1  0.081394  0.831021  0.457821  1
  O  O357  1  0.047812  0.669063  0.468028  1
  O  O358  1  0.304450  0.359133  0.443283  1
  O  O359  1  0.304430  0.640966  0.443285  1
  O  O360  1  0.173185  0.631516  0.443291  1
  O  O361  1  0.431634  0.500056  0.543068  1
  O  O362  1  0.568340  0.500067  0.543069  1
  O  O363  1  0.499986  0.631518  0.542652  1
  O  O364  1  0.566223  0.136738  0.443281  1
  O  O365  1  0.499990  0.368612  0.542655  1
  O  O366  1  0.432011  0.641955  0.522879  1
  O  O367  1  0.567967  0.358174  0.522879  1
  O  O368  1  0.432014  0.358170  0.522878  1
  O  O369  1  0.567960  0.641967  0.522878  1
  O  O370  1  0.641920  0.192393  0.569657  1
  O  O371  1  0.415747  0.692369  0.552122  1
  O  O372  1  0.358048  0.807763  0.569661  1
  O  O373  1  0.584225  0.307765  0.552119  1
  O  O374  1  0.641931  0.807797  0.569664  1
  O  O375  1  0.415756  0.307759  0.552123  1
  O  O376  1  0.358047  0.192363  0.569661  1
  O  O377  1  0.584219  0.692391  0.552124  1
  O  O378  1  0.408066  0.673231  0.493044  1
  O  O379  1  0.591910  0.326892  0.493044  1
  O  O380  1  0.408066  0.326877  0.493046  1
  O  O381  1  0.591915  0.673241  0.493042  1
  O  O382  1  0.435644  0.500051  0.503542  1
  O  O383  1  0.564335  0.500059  0.503538  1
  O  O384  1  0.499988  0.640983  0.502724  1
  O  O385  1  0.499993  0.359150  0.502726  1
  O  O386  1  0.567753  0.000000  0.463882  1
  O  O387  1  0.432227  0.000000  0.463882  1
  O  O388  1  0.499994  0.863387  0.463419  1
  O  O389  1  0.499989  0.136732  0.463417  1
  O  O390  1  0.588375  0.799796  0.470150  1
  O  O391  1  0.411613  0.799793  0.470151  1
  O  O392  1  0.411604  0.200320  0.470149  1
  O  O393  1  0.588363  0.200342  0.470149  1
  O  O394  1  0.578899  0.602949  0.467271  1
  O  O395  1  0.421080  0.602934  0.467271  1
  O  O396  1  0.421078  0.397175  0.467271  1
  O  O397  1  0.578899  0.397189  0.467272  1
  O  O398  1  0.547817  0.169074  0.570520  1
  O  O399  1  0.418580  0.669079  0.580729  1
  O  O400  1  0.452155  0.831045  0.570520  1
  O  O401  1  0.581398  0.331027  0.580731  1
  O  O402  1  0.547821  0.831034  0.570521  1
  O  O403  1  0.418582  0.331034  0.580730  1
  O  O404  1  0.452155  0.169079  0.570521  1
  O  O405  1  0.581395  0.669090  0.580726  1
  O  O406  1  0.433588  0.500039  0.443283  1
  O  O407  1  0.499992  0.500067  0.463469  1
  O  O408  1  0.336266  0.673233  0.471228  1
  O  O409  1  0.499983  0.000000  0.574409  1
  O  O410  1  0.663701  0.673229  0.471225  1
  O  O411  1  0.663693  0.326895  0.471226  1
  O  O412  1  0.336284  0.326881  0.471229  1
  O  O413  1  0.566393  0.500058  0.443282  1
  O  O414  1  0.566230  0.863384  0.443282  1
  O  O415  1  0.433759  0.863377  0.443282  1
  O  O416  1  0.433752  0.136725  0.443282  1
  O  O417  1  0.828264  0.500060  0.464062  1
  O  O418  1  0.671711  0.000000  0.574486  1
  O  O419  1  0.931642  0.000000  0.495483  1
  O  O420  1  0.826843  0.368602  0.443285  1
  O  O421  1  0.761830  0.641949  0.463950  1
  O  O422  1  0.738104  0.141943  0.574645  1
  O  O423  1  0.932014  0.858168  0.515673  1
  O  O424  1  0.738148  0.858174  0.574586  1
  O  O425  1  0.761862  0.358177  0.463925  1
  O  O426  1  0.932014  0.141936  0.515672  1
  O  O427  1  0.858050  0.692350  0.468887  1
  O  O428  1  0.915763  0.807759  0.486429  1
  O  O429  1  0.858052  0.307737  0.468891  1
  O  O430  1  0.915752  0.192360  0.486429  1
  O  O431  1  0.826918  0.631481  0.443277  1
  O  O432  1  0.836272  0.173236  0.567322  1
  O  O433  1  0.908071  0.826882  0.545505  1
  O  O434  1  0.836287  0.826883  0.567323  1
  O  O435  1  0.908070  0.173235  0.545506  1
  O  O436  1  0.698211  0.500050  0.462844  1
  O  O437  1  0.801757  0.000000  0.575704  1
  O  O438  1  0.935644  0.000000  0.535010  1
  O  O439  1  0.000000  -0.000000  0.575084  1
  O  O440  1  0.932232  0.500067  0.574673  1
  O  O441  1  0.000000  0.868590  0.495908  1
  O  O442  1  -0.000000  0.859137  0.535827  1
  O  O443  1  0.911610  0.299780  0.568402  1
  O  O444  1  0.911609  0.700341  0.568404  1
  O  O445  1  0.921079  0.102943  0.571281  1
  O  O446  1  0.921074  0.897176  0.571281  1
  O  O447  1  0.952153  0.669075  0.468030  1
  O  O448  1  0.918587  0.831018  0.457822  1
  O  O449  1  0.952156  0.331030  0.468028  1
  O  O450  1  0.918580  0.169085  0.457822  1
  O  O451  1  -0.000000  0.500046  0.464141  1
  O  O452  1  -0.000000  0.368545  0.443284  1
  O  O453  1  0.695543  0.640968  0.443279  1
  O  O454  1  0.000000  0.631554  0.443284  1
  O  O455  1  0.000000  0.131489  0.495897  1
  O  O456  1  0.695550  0.359136  0.443283  1
  O  O457  1  0.931380  0.000000  0.443285  1
  O  O458  1  0.000000  0.363392  0.575138  1
  O  O459  1  0.000000  0.868546  0.443284  1
  O  O460  1  -0.000000  0.636725  0.575135  1
  O  O461  1  0.000000  0.131546  0.443286  1
  O  O462  1  -0.000000  0.140964  0.535827  1
  O  O463  1  0.328255  -0.000000  0.616043  1
  O  O464  1  0.171724  0.500053  0.726479  1
  O  O465  1  0.068335  0.000000  0.695051  1
  O  O466  1  0.261844  0.141945  0.615930  1
  O  O467  1  0.238131  0.641926  0.726590  1
  O  O468  1  0.067961  0.858162  0.674862  1
  O  O469  1  0.238139  0.358148  0.726589  1
  O  O470  1  0.261841  0.858172  0.615930  1
  O  O471  1  0.067960  0.141927  0.674864  1
  O  O472  1  0.141931  0.692338  0.721648  1
  O  O473  1  0.084214  0.807742  0.704108  1
  O  O474  1  0.141925  0.307726  0.721651  1
  O  O475  1  0.084223  0.192347  0.704108  1
  O  O476  1  0.163696  0.173228  0.623209  1
  O  O477  1  0.091915  0.826879  0.645028  1
  O  O478  1  0.163696  0.826890  0.623209  1
  O  O479  1  0.091914  0.173221  0.645030  1
  O  O480  1  0.198223  0.000000  0.614827  1
  O  O481  1  0.301754  0.500060  0.727697  1
  O  O482  1  0.064335  0.000000  0.655523  1
  O  O483  1  0.067745  0.500055  0.615865  1
  O  O484  1  0.088370  0.299772  0.622134  1
  O  O485  1  0.088375  0.700334  0.622134  1
  O  O486  1  0.078903  0.102942  0.619255  1
  O  O487  1  0.078902  0.897164  0.619255  1
  O  O488  1  0.047822  0.669080  0.722510  1
  O  O489  1  0.081400  0.831009  0.732712  1
  O  O490  1  0.047819  0.331024  0.722507  1
  O  O491  1  0.081397  0.169065  0.732712  1
  O  O492  1  0.066390  0.000000  0.595269  1
  O  O493  1  0.326920  0.868624  0.595273  1
  O  O494  1  0.326917  0.131500  0.595273  1
  O  O495  1  0.066219  0.363383  0.595269  1
  O  O496  1  0.195542  0.140984  0.595270  1
  O  O497  1  0.195541  0.859147  0.595270  1
  O  O498  1  0.066223  0.636718  0.595270  1
  O  O499  1  0.568327  0.500055  0.647468  1
  O  O500  1  0.431628  0.500048  0.647464  1
  O  O501  1  0.663692  0.326880  0.719311  1
  O  O502  1  0.499990  0.368561  0.595264  1
  O  O503  1  0.499984  0.631494  0.647893  1
  O  O504  1  0.499986  0.368613  0.647895  1
  O  O505  1  0.567960  0.641936  0.667656  1
  O  O506  1  0.432048  0.358153  0.667655  1
  O  O507  1  0.567966  0.358163  0.667657  1
  O  O508  1  0.432050  0.641936  0.667655  1
  O  O509  1  0.358052  0.192367  0.620871  1
  O  O510  1  0.584209  0.692352  0.638410  1
  O  O511  1  0.641919  0.807734  0.620867  1
  O  O512  1  0.415755  0.307740  0.638411  1
  O  O513  1  0.358049  0.807748  0.620870  1
  O  O514  1  0.584209  0.307755  0.638411  1
  O  O515  1  0.641923  0.192364  0.620868  1
  O  O516  1  0.415754  0.692352  0.638409  1
  O  O517  1  0.591908  0.673224  0.697488  1
  O  O518  1  0.408055  0.326877  0.697488  1
  O  O519  1  0.591910  0.326887  0.697489  1
  O  O520  1  0.408058  0.673220  0.697489  1
  O  O521  1  0.564329  0.500057  0.686993  1
  O  O522  1  0.435634  0.500051  0.686995  1
  O  O523  1  0.499990  0.640966  0.687812  1
  O  O524  1  0.499991  0.359128  0.687814  1
  O  O525  1  0.432226  -0.000000  0.726653  1
  O  O526  1  0.567754  -0.000000  0.726653  1
  O  O527  1  0.336288  0.673212  0.719313  1
  O  O528  1  0.499993  0.863371  0.727119  1
  O  O529  1  0.663690  0.673210  0.719309  1
  O  O530  1  0.499989  0.136730  0.727118  1
  O  O531  1  0.411607  0.799751  0.720388  1
  O  O532  1  0.588377  0.799770  0.720386  1
  O  O533  1  0.588370  0.200333  0.720385  1
  O  O534  1  0.411603  0.200322  0.720387  1
  O  O535  1  0.421072  0.602930  0.723266  1
  O  O536  1  0.578903  0.602942  0.723264  1
  O  O537  1  0.578906  0.397163  0.723265  1
  O  O538  1  0.421074  0.397158  0.723267  1
  O  O539  1  0.452159  0.169071  0.620011  1
  O  O540  1  0.581397  0.669077  0.609806  1
  O  O541  1  0.547820  0.831023  0.620011  1
  O  O542  1  0.418581  0.331039  0.609807  1
  O  O543  1  0.452160  0.831021  0.620012  1
  O  O544  1  0.581401  0.331028  0.609808  1
  O  O545  1  0.547826  0.169081  0.620011  1
  O  O546  1  0.418584  0.669079  0.609807  1
  O  O547  1  0.336294  0.326848  0.719309  1
  O  O548  1  0.499991  0.500037  0.727067  1
  O  O549  1  0.499988  0.631560  0.595266  1
  O  O550  1  0.431374  0.500055  0.595266  1
  O  O551  1  0.568608  0.500055  0.595266  1
  O  O552  1  0.499988  0.000000  0.616123  1
  O  O553  1  0.499990  0.131558  0.595267  1
  O  O554  1  0.499982  0.868551  0.595268  1
  O  O555  1  0.931643  0.000000  0.695049  1
  O  O556  1  0.828252  0.500038  0.726475  1
  O  O557  1  0.671728  0.000000  0.616038  1
  O  O558  1  0.673206  0.131526  0.595260  1
  O  O559  1  0.932018  0.141939  0.674862  1
  O  O560  1  0.761848  0.358167  0.726593  1
  O  O561  1  0.738134  0.858163  0.615930  1
  O  O562  1  0.932013  0.858160  0.674861  1
  O  O563  1  0.738128  0.141942  0.615927  1
  O  O564  1  0.761839  0.641923  0.726590  1
  O  O565  1  0.915759  0.192357  0.704107  1
  O  O566  1  0.858053  0.307741  0.721647  1
  O  O567  1  0.915757  0.807740  0.704107  1
  O  O568  1  0.858055  0.692353  0.721648  1
  O  O569  1  0.908062  0.173225  0.645028  1
  O  O570  1  0.933585  -0.000000  0.595267  1
  O  O571  1  0.836289  0.826869  0.623209  1
  O  O572  1  0.908056  0.826886  0.645029  1
  O  O573  1  0.836278  0.173222  0.623205  1
  O  O574  1  0.933756  0.636730  0.595268  1
  O  O575  1  0.935641  0.000000  0.655522  1
  O  O576  1  0.698226  0.500043  0.727694  1
  O  O577  1  0.801752  -0.000000  0.614821  1
  O  O578  1  0.804437  0.140975  0.595265  1
  O  O579  1  -0.000000  0.859133  0.654706  1
  O  O580  1  0.932227  0.500060  0.615866  1
  O  O581  1  0.933759  0.363390  0.595268  1
  O  O582  1  0.000000  0.636728  0.615402  1
  O  O583  1  0.911602  0.299783  0.622134  1
  O  O584  1  0.911602  0.700322  0.622132  1
  O  O585  1  0.921075  0.102945  0.619253  1
  O  O586  1  0.921072  0.897177  0.619253  1
  O  O587  1  0.918587  0.169079  0.732712  1
  O  O588  1  0.952158  0.331013  0.722507  1
  O  O589  1  0.918581  0.831010  0.732712  1
  O  O590  1  0.952155  0.669080  0.722508  1
  O  O591  1  -0.000000  0.140969  0.654707  1
  O  O592  1  -0.000000  0.500045  0.726396  1
  O  O593  1  0.000000  0.363383  0.615401  1
  O  O594  1  0.000000  0.000000  0.615453  1
  O  O595  1  0.000000  0.131485  0.694636  1
  O  O596  1  -0.000000  0.868606  0.694636  1
  O  O597  1  0.673031  0.868645  0.595273  1
  O  O598  1  0.804451  0.859143  0.595268  1
  O  O599  1  0.068343  0.000000  0.799449  1
  O  O600  1  0.171713  0.499984  0.768031  1
  O  O601  1  0.173029  0.368628  0.747246  1
  O  O602  1  0.067966  0.141940  0.819641  1
  O  O603  1  0.238143  0.358171  0.767932  1
  O  O604  1  0.067925  0.858152  0.819637  1
  O  O605  1  0.238108  0.641940  0.767876  1
  O  O606  1  0.084219  0.192368  0.790393  1
  O  O607  1  0.141933  0.307788  0.772855  1
  O  O608  1  0.084226  0.807739  0.790397  1
  O  O609  1  0.141918  0.692390  0.772860  1
  O  O610  1  0.301754  0.500063  0.766814  1
  O  O611  1  0.068605  -0.000000  0.747253  1
  O  O612  1  0.081395  0.169088  0.761792  1
  O  O613  1  0.047822  0.331010  0.771996  1
  O  O614  1  0.081394  0.831021  0.761788  1
  O  O615  1  0.047812  0.669063  0.771996  1
  O  O616  1  0.304450  0.359133  0.747251  1
  O  O617  1  0.304430  0.640966  0.747253  1
  O  O618  1  0.173185  0.631516  0.747259  1
  O  O619  1  0.566223  0.136738  0.747249  1
  O  O620  1  0.408066  0.673231  0.797012  1
  O  O621  1  0.591910  0.326892  0.797012  1
  O  O622  1  0.408066  0.326877  0.797013  1
  O  O623  1  0.591915  0.673241  0.797009  1
  O  O624  1  0.567753  0.000000  0.767849  1
  O  O625  1  0.432227  -0.000000  0.767850  1
  O  O626  1  0.499994  0.863387  0.767386  1
  O  O627  1  0.499989  0.136732  0.767384  1
  O  O628  1  0.588375  0.799796  0.774118  1
  O  O629  1  0.411613  0.799793  0.774119  1
  O  O630  1  0.411604  0.200320  0.774117  1
  O  O631  1  0.588363  0.200342  0.774117  1
  O  O632  1  0.578899  0.602949  0.771239  1
  O  O633  1  0.421080  0.602934  0.771239  1
  O  O634  1  0.421078  0.397175  0.771239  1
  O  O635  1  0.578899  0.397189  0.771240  1
  O  O636  1  0.433588  0.500039  0.747250  1
  O  O637  1  0.499992  0.500067  0.767436  1
  O  O638  1  0.336266  0.673233  0.775195  1
  O  O639  1  0.663701  0.673229  0.775193  1
  O  O640  1  0.663693  0.326895  0.775194  1
  O  O641  1  0.336284  0.326881  0.775197  1
  O  O642  1  0.566393  0.500058  0.747249  1
  O  O643  1  0.566230  0.863384  0.747249  1
  O  O644  1  0.433759  0.863377  0.747250  1
  O  O645  1  0.433752  0.136725  0.747250  1
  O  O646  1  0.828264  0.500060  0.768030  1
  O  O647  1  0.931642  -0.000000  0.799451  1
  O  O648  1  0.826843  0.368602  0.747253  1
  O  O649  1  0.761830  0.641949  0.767917  1
  O  O650  1  0.932014  0.858168  0.819641  1
  O  O651  1  0.761862  0.358177  0.767893  1
  O  O652  1  0.932014  0.141936  0.819640  1
  O  O653  1  0.858050  0.692350  0.772855  1
  O  O654  1  0.915763  0.807759  0.790396  1
  O  O655  1  0.858052  0.307737  0.772859  1
  O  O656  1  0.915752  0.192360  0.790397  1
  O  O657  1  0.826918  0.631481  0.747245  1
  O  O658  1  0.698211  0.500050  0.766811  1
  O  O659  1  -0.000000  0.868590  0.799876  1
  O  O660  1  0.952153  0.669075  0.771997  1
  O  O661  1  0.918587  0.831018  0.761790  1
  O  O662  1  0.952156  0.331030  0.771996  1
  O  O663  1  0.918580  0.169085  0.761789  1
  O  O664  1  -0.000000  0.500046  0.768109  1
  O  O665  1  0.000000  0.368545  0.747252  1
  O  O666  1  0.695543  0.640968  0.747247  1
  O  O667  1  -0.000000  0.631554  0.747251  1
  O  O668  1  0.000000  0.131489  0.799865  1
  O  O669  1  0.695550  0.359136  0.747251  1
  O  O670  1  0.931380  0.000000  0.747252  1
  O  O671  1  0.000000  0.868546  0.747252  1
  O  O672  1  -0.000000  0.131546  0.747254  1
  Si  Si673  1  0.090469  0.250049  0.111813  1
  Si  Si674  1  0.090475  0.750039  0.111811  1
  Si  Si675  1  0.295410  0.380286  0.121834  1
  Si  Si676  1  0.180844  0.619193  0.121758  1
  Si  Si677  1  0.057761  0.880895  0.084342  1
  Si  Si678  1  0.180842  0.380901  0.121750  1
  Si  Si679  1  0.057764  0.119191  0.084344  1
  Si  Si680  1  0.295397  0.619824  0.121837  1
  Si  Si681  1  0.442536  0.500044  0.121851  1
  Si  Si682  1  0.557446  0.500048  0.121850  1
  Si  Si683  1  0.442485  0.880904  0.121834  1
  Si  Si684  1  0.557500  0.880917  0.121834  1
  Si  Si685  1  0.557496  0.119189  0.121834  1
  Si  Si686  1  0.442482  0.119180  0.121835  1
  Si  Si687  1  0.392829  0.691155  0.106744  1
  Si  Si688  1  0.607148  0.691169  0.106742  1
  Si  Si689  1  0.607149  0.308933  0.106742  1
  Si  Si690  1  0.392839  0.308922  0.106743  1
  Si  Si691  1  0.942209  0.119192  0.084342  1
  Si  Si692  1  0.819140  0.380896  0.121755  1
  Si  Si693  1  0.942208  0.880896  0.084342  1
  Si  Si694  1  0.819134  0.619187  0.121746  1
  Si  Si695  1  0.704580  0.380275  0.121835  1
  Si  Si696  1  0.704574  0.619811  0.121832  1
  Si  Si697  1  0.909507  0.250047  0.111812  1
  Si  Si698  1  0.909505  0.750047  0.111812  1
  Si  Si699  1  0.000000  0.381265  0.121593  1
  Si  Si700  1  -0.000000  0.618831  0.121592  1
  Si  Si701  1  0.090488  0.250071  0.166819  1
  Si  Si702  1  0.057494  0.380915  0.273821  1
  Si  Si703  1  0.058296  0.881267  0.139314  1
  Si  Si704  1  0.057446  0.000000  0.273836  1
  Si  Si705  1  0.090456  0.750055  0.166820  1
  Si  Si706  1  0.107149  0.191175  0.258728  1
  Si  Si707  1  0.057496  0.619199  0.273821  1
  Si  Si708  1  0.107147  0.808942  0.258727  1
  Si  Si709  1  0.057764  0.119217  0.194288  1
  Si  Si710  1  0.319128  0.880904  0.273742  1
  Si  Si711  1  0.180855  0.380863  0.156875  1
  Si  Si712  1  0.057775  0.880910  0.194288  1
  Si  Si713  1  0.180813  0.619138  0.156886  1
  Si  Si714  1  0.319129  0.119215  0.273742  1
  Si  Si715  1  0.057499  0.119817  0.229114  1
  Si  Si716  1  0.204566  0.880302  0.273821  1
  Si  Si717  1  0.295408  0.380297  0.156799  1
  Si  Si718  1  0.057498  0.880283  0.229111  1
  Si  Si719  1  0.295381  0.619820  0.156796  1
  Si  Si720  1  0.204567  0.119817  0.273822  1
  Si  Si721  1  0.058297  0.118836  0.139318  1
  Si  Si722  1  0.442536  0.500054  0.156780  1
  Si  Si723  1  0.557447  0.500067  0.156779  1
  Si  Si724  1  0.442208  0.619205  0.236327  1
  Si  Si725  1  0.557766  0.380923  0.236325  1
  Si  Si726  1  0.442212  0.380913  0.236326  1
  Si  Si727  1  0.557763  0.619217  0.236328  1
  Si  Si728  1  0.442480  0.619815  0.201503  1
  Si  Si729  1  0.557502  0.380296  0.201504  1
  Si  Si730  1  0.442484  0.380290  0.201504  1
  Si  Si731  1  0.557498  0.619826  0.201501  1
  Si  Si732  1  0.499989  0.881275  0.273575  1
  Si  Si733  1  0.499984  0.118838  0.273575  1
  Si  Si734  1  0.557501  0.880927  0.156795  1
  Si  Si735  1  0.442487  0.880926  0.156795  1
  Si  Si736  1  0.442483  0.119198  0.156795  1
  Si  Si737  1  0.557495  0.119203  0.156795  1
  Si  Si738  1  0.607151  0.691183  0.171886  1
  Si  Si739  1  0.392830  0.691168  0.171886  1
  Si  Si740  1  0.392835  0.308931  0.171889  1
  Si  Si741  1  0.607145  0.308946  0.171888  1
  Si  Si742  1  0.590459  0.250076  0.263793  1
  Si  Si743  1  0.409504  0.750059  0.263797  1
  Si  Si744  1  0.590483  0.750082  0.263797  1
  Si  Si745  1  0.409506  0.250061  0.263796  1
  Si  Si746  1  0.942481  0.380929  0.273820  1
  Si  Si747  1  0.892836  0.808937  0.258726  1
  Si  Si748  1  0.941683  0.118830  0.139316  1
  Si  Si749  1  0.942536  0.000000  0.273835  1
  Si  Si750  1  0.892832  0.191172  0.258728  1
  Si  Si751  1  0.909508  0.250049  0.166820  1
  Si  Si752  1  0.909505  0.750054  0.166820  1
  Si  Si753  1  0.942484  0.619202  0.273820  1
  Si  Si754  1  0.819130  0.619209  0.156873  1
  Si  Si755  1  0.680814  0.119151  0.273726  1
  Si  Si756  1  0.942216  0.880903  0.194291  1
  Si  Si757  1  0.680857  0.880869  0.273743  1
  Si  Si758  1  0.819150  0.380911  0.156882  1
  Si  Si759  1  0.942208  0.119194  0.194288  1
  Si  Si760  1  0.704566  0.619809  0.156793  1
  Si  Si761  1  0.795381  0.119822  0.273820  1
  Si  Si762  1  0.942484  0.880282  0.229113  1
  Si  Si763  1  0.795410  0.880296  0.273818  1
  Si  Si764  1  0.704585  0.380294  0.156796  1
  Si  Si765  1  0.942481  0.119820  0.229112  1
  Si  Si766  1  0.941681  0.881262  0.139315  1
  Si  Si767  1  0.000000  0.381264  0.157041  1
  Si  Si768  1  -0.000000  0.618825  0.157040  1
  Si  Si769  1  0.057445  -0.000000  0.308766  1
  Si  Si770  1  0.057497  0.619191  0.308782  1
  Si  Si771  1  0.057496  0.119809  0.353488  1
  Si  Si772  1  0.057496  0.380919  0.308782  1
  Si  Si773  1  0.090469  0.250049  0.415780  1
  Si  Si774  1  0.204577  0.880286  0.308782  1
  Si  Si775  1  0.090475  0.750039  0.415779  1
  Si  Si776  1  0.295410  0.380286  0.425801  1
  Si  Si777  1  0.057495  0.880280  0.353487  1
  Si  Si778  1  0.107152  0.808935  0.323873  1
  Si  Si779  1  0.107149  0.191168  0.323873  1
  Si  Si780  1  0.319137  0.119199  0.308869  1
  Si  Si781  1  0.180844  0.619193  0.425726  1
  Si  Si782  1  0.057761  0.880895  0.388310  1
  Si  Si783  1  0.180842  0.380901  0.425718  1
  Si  Si784  1  0.319134  0.880915  0.308868  1
  Si  Si785  1  0.057764  0.119191  0.388311  1
  Si  Si786  1  0.204579  0.119830  0.308782  1
  Si  Si787  1  0.295397  0.619824  0.425804  1
  Si  Si788  1  0.442536  0.500044  0.425819  1
  Si  Si789  1  0.590472  0.250055  0.318805  1
  Si  Si790  1  0.557446  0.500048  0.425817  1
  Si  Si791  1  0.557761  0.619202  0.346273  1
  Si  Si792  1  0.442204  0.380895  0.346273  1
  Si  Si793  1  0.557765  0.380908  0.346274  1
  Si  Si794  1  0.442204  0.619203  0.346272  1
  Si  Si795  1  0.557495  0.619826  0.381095  1
  Si  Si796  1  0.442486  0.380286  0.381096  1
  Si  Si797  1  0.557496  0.380285  0.381096  1
  Si  Si798  1  0.442485  0.619812  0.381096  1
  Si  Si799  1  0.409503  0.750061  0.318802  1
  Si  Si800  1  0.590469  0.750055  0.318803  1
  Si  Si801  1  0.499988  0.881276  0.309024  1
  Si  Si802  1  0.409507  0.250045  0.318802  1
  Si  Si803  1  0.558297  0.618842  0.291298  1
  Si  Si804  1  0.499994  0.118836  0.309024  1
  Si  Si805  1  0.442485  0.880904  0.425801  1
  Si  Si806  1  0.557500  0.880917  0.425801  1
  Si  Si807  1  0.557496  0.119189  0.425801  1
  Si  Si808  1  0.442482  0.119180  0.425802  1
  Si  Si809  1  0.392829  0.691155  0.410712  1
  Si  Si810  1  0.607148  0.691169  0.410709  1
  Si  Si811  1  0.607149  0.308933  0.410710  1
  Si  Si812  1  0.392839  0.308922  0.410710  1
  Si  Si813  1  0.441682  0.381277  0.291301  1
  Si  Si814  1  0.441680  0.618837  0.291300  1
  Si  Si815  1  0.558298  0.381273  0.291302  1
  Si  Si816  1  0.942535  0.000000  0.308765  1
  Si  Si817  1  0.942209  0.119192  0.388310  1
  Si  Si818  1  0.819140  0.380896  0.425722  1
  Si  Si819  1  0.680840  0.880914  0.308867  1
  Si  Si820  1  0.942208  0.880896  0.388309  1
  Si  Si821  1  0.680841  0.119211  0.308855  1
  Si  Si822  1  0.819134  0.619187  0.425714  1
  Si  Si823  1  0.942481  0.119813  0.353486  1
  Si  Si824  1  0.704580  0.380275  0.425803  1
  Si  Si825  1  0.795405  0.880304  0.308782  1
  Si  Si826  1  0.942479  0.880285  0.353486  1
  Si  Si827  1  0.795394  0.119834  0.308777  1
  Si  Si828  1  0.704574  0.619811  0.425800  1
  Si  Si829  1  0.942482  0.380922  0.308781  1
  Si  Si830  1  0.942485  0.619194  0.308780  1
  Si  Si831  1  0.892823  0.191168  0.323871  1
  Si  Si832  1  0.892835  0.808935  0.323871  1
  Si  Si833  1  0.909507  0.250047  0.415779  1
  Si  Si834  1  0.909505  0.750047  0.415779  1
  Si  Si835  1  -0.000000  0.381265  0.425560  1
  Si  Si836  1  -0.000000  0.618831  0.425559  1
  Si  Si837  1  0.090488  0.250071  0.470787  1
  Si  Si838  1  0.057494  0.380915  0.577789  1
  Si  Si839  1  0.058296  0.881267  0.443282  1
  Si  Si840  1  0.057446  0.000000  0.577804  1
  Si  Si841  1  0.090456  0.750055  0.470788  1
  Si  Si842  1  0.107149  0.191175  0.562696  1
  Si  Si843  1  0.057496  0.619199  0.577789  1
  Si  Si844  1  0.107147  0.808942  0.562695  1
  Si  Si845  1  0.057764  0.119217  0.498256  1
  Si  Si846  1  0.319128  0.880904  0.577710  1
  Si  Si847  1  0.180855  0.380863  0.460842  1
  Si  Si848  1  0.057775  0.880910  0.498256  1
  Si  Si849  1  0.180813  0.619138  0.460854  1
  Si  Si850  1  0.319129  0.119215  0.577710  1
  Si  Si851  1  0.057499  0.119817  0.533082  1
  Si  Si852  1  0.204566  0.880302  0.577789  1
  Si  Si853  1  0.295408  0.380297  0.460766  1
  Si  Si854  1  0.057498  0.880283  0.533079  1
  Si  Si855  1  0.295381  0.619820  0.460764  1
  Si  Si856  1  0.204567  0.119817  0.577790  1
  Si  Si857  1  0.058297  0.118836  0.443286  1
  Si  Si858  1  0.442536  0.500054  0.460748  1
  Si  Si859  1  0.557447  0.500067  0.460747  1
  Si  Si860  1  0.442208  0.619205  0.540295  1
  Si  Si861  1  0.557766  0.380923  0.540293  1
  Si  Si862  1  0.442212  0.380913  0.540294  1
  Si  Si863  1  0.557763  0.619217  0.540295  1
  Si  Si864  1  0.442480  0.619815  0.505471  1
  Si  Si865  1  0.557502  0.380296  0.505471  1
  Si  Si866  1  0.442484  0.380290  0.505471  1
  Si  Si867  1  0.557498  0.619826  0.505469  1
  Si  Si868  1  0.499989  0.881275  0.577543  1
  Si  Si869  1  0.499984  0.118838  0.577543  1
  Si  Si870  1  0.557501  0.880927  0.460763  1
  Si  Si871  1  0.442487  0.880926  0.460763  1
  Si  Si872  1  0.442483  0.119198  0.460763  1
  Si  Si873  1  0.557495  0.119203  0.460762  1
  Si  Si874  1  0.607151  0.691183  0.475854  1
  Si  Si875  1  0.392830  0.691168  0.475854  1
  Si  Si876  1  0.392835  0.308931  0.475857  1
  Si  Si877  1  0.607145  0.308946  0.475856  1
  Si  Si878  1  0.590459  0.250076  0.567761  1
  Si  Si879  1  0.409504  0.750059  0.567765  1
  Si  Si880  1  0.590483  0.750082  0.567764  1
  Si  Si881  1  0.409506  0.250061  0.567764  1
  Si  Si882  1  0.942481  0.380929  0.577788  1
  Si  Si883  1  0.892836  0.808937  0.562693  1
  Si  Si884  1  0.941683  0.118830  0.443284  1
  Si  Si885  1  0.942536  -0.000000  0.577803  1
  Si  Si886  1  0.892832  0.191172  0.562696  1
  Si  Si887  1  0.909508  0.250049  0.470788  1
  Si  Si888  1  0.909505  0.750054  0.470788  1
  Si  Si889  1  0.942484  0.619202  0.577788  1
  Si  Si890  1  0.819130  0.619209  0.460840  1
  Si  Si891  1  0.680814  0.119151  0.577694  1
  Si  Si892  1  0.942216  0.880903  0.498258  1
  Si  Si893  1  0.680857  0.880869  0.577710  1
  Si  Si894  1  0.819150  0.380911  0.460849  1
  Si  Si895  1  0.942208  0.119194  0.498256  1
  Si  Si896  1  0.704566  0.619809  0.460760  1
  Si  Si897  1  0.795381  0.119822  0.577788  1
  Si  Si898  1  0.942484  0.880282  0.533080  1
  Si  Si899  1  0.795410  0.880296  0.577786  1
  Si  Si900  1  0.704585  0.380294  0.460764  1
  Si  Si901  1  0.942481  0.119820  0.533080  1
  Si  Si902  1  0.941681  0.881262  0.443282  1
  Si  Si903  1  -0.000000  0.381264  0.461009  1
  Si  Si904  1  0.000000  0.618825  0.461008  1
  Si  Si905  1  0.057445  0.000000  0.612733  1
  Si  Si906  1  0.057497  0.619191  0.612750  1
  Si  Si907  1  0.057496  0.119809  0.657456  1
  Si  Si908  1  0.057496  0.380919  0.612750  1
  Si  Si909  1  0.090469  0.250049  0.719748  1
  Si  Si910  1  0.204577  0.880286  0.612749  1
  Si  Si911  1  0.090475  0.750039  0.719747  1
  Si  Si912  1  0.295410  0.380286  0.729769  1
  Si  Si913  1  0.057495  0.880280  0.657455  1
  Si  Si914  1  0.107152  0.808935  0.627841  1
  Si  Si915  1  0.107149  0.191168  0.627841  1
  Si  Si916  1  0.319137  0.119199  0.612837  1
  Si  Si917  1  0.180844  0.619193  0.729693  1
  Si  Si918  1  0.057761  0.880895  0.692278  1
  Si  Si919  1  0.180842  0.380901  0.729686  1
  Si  Si920  1  0.319134  0.880915  0.612836  1
  Si  Si921  1  0.057764  0.119191  0.692279  1
  Si  Si922  1  0.204579  0.119830  0.612750  1
  Si  Si923  1  0.295397  0.619824  0.729772  1
  Si  Si924  1  0.442536  0.500044  0.729786  1
  Si  Si925  1  0.590472  0.250055  0.622773  1
  Si  Si926  1  0.557446  0.500048  0.729785  1
  Si  Si927  1  0.557761  0.619202  0.650241  1
  Si  Si928  1  0.442204  0.380895  0.650241  1
  Si  Si929  1  0.557765  0.380908  0.650242  1
  Si  Si930  1  0.442204  0.619203  0.650240  1
  Si  Si931  1  0.557495  0.619826  0.685063  1
  Si  Si932  1  0.442486  0.380286  0.685064  1
  Si  Si933  1  0.557496  0.380285  0.685064  1
  Si  Si934  1  0.442485  0.619812  0.685064  1
  Si  Si935  1  0.409503  0.750061  0.622770  1
  Si  Si936  1  0.590469  0.750055  0.622771  1
  Si  Si937  1  0.499988  0.881276  0.612992  1
  Si  Si938  1  0.409507  0.250045  0.622770  1
  Si  Si939  1  0.558297  0.618842  0.595266  1
  Si  Si940  1  0.499994  0.118836  0.612991  1
  Si  Si941  1  0.442485  0.880904  0.729769  1
  Si  Si942  1  0.557500  0.880917  0.729769  1
  Si  Si943  1  0.557496  0.119189  0.729769  1
  Si  Si944  1  0.442482  0.119180  0.729770  1
  Si  Si945  1  0.392829  0.691155  0.714679  1
  Si  Si946  1  0.607148  0.691169  0.714677  1
  Si  Si947  1  0.607149  0.308933  0.714678  1
  Si  Si948  1  0.392839  0.308922  0.714678  1
  Si  Si949  1  0.441682  0.381277  0.595268  1
  Si  Si950  1  0.441680  0.618837  0.595268  1
  Si  Si951  1  0.558298  0.381273  0.595269  1
  Si  Si952  1  0.942535  0.000000  0.612732  1
  Si  Si953  1  0.942209  0.119192  0.692278  1
  Si  Si954  1  0.819140  0.380896  0.729690  1
  Si  Si955  1  0.680840  0.880914  0.612834  1
  Si  Si956  1  0.942208  0.880896  0.692277  1
  Si  Si957  1  0.680841  0.119211  0.612822  1
  Si  Si958  1  0.819134  0.619187  0.729681  1
  Si  Si959  1  0.942481  0.119813  0.657454  1
  Si  Si960  1  0.704580  0.380275  0.729771  1
  Si  Si961  1  0.795405  0.880304  0.612749  1
  Si  Si962  1  0.942479  0.880285  0.657454  1
  Si  Si963  1  0.795394  0.119834  0.612745  1
  Si  Si964  1  0.704574  0.619811  0.729767  1
  Si  Si965  1  0.942482  0.380922  0.612749  1
  Si  Si966  1  0.942485  0.619194  0.612748  1
  Si  Si967  1  0.892823  0.191168  0.627838  1
  Si  Si968  1  0.892835  0.808935  0.627839  1
  Si  Si969  1  0.909507  0.250047  0.719747  1
  Si  Si970  1  0.909505  0.750047  0.719747  1
  Si  Si971  1  -0.000000  0.381265  0.729528  1
  Si  Si972  1  -0.000000  0.618831  0.729527  1
  Si  Si973  1  0.090488  0.250071  0.774754  1
  Si  Si974  1  0.058296  0.881267  0.747250  1
  Si  Si975  1  0.090456  0.750055  0.774755  1
  Si  Si976  1  0.057764  0.119217  0.802223  1
  Si  Si977  1  0.180855  0.380863  0.764810  1
  Si  Si978  1  0.057775  0.880910  0.802223  1
  Si  Si979  1  0.180813  0.619138  0.764822  1
  Si  Si980  1  0.295408  0.380297  0.764734  1
  Si  Si981  1  0.295381  0.619820  0.764731  1
  Si  Si982  1  0.058297  0.118836  0.747254  1
  Si  Si983  1  0.442536  0.500054  0.764715  1
  Si  Si984  1  0.557447  0.500067  0.764714  1
  Si  Si985  1  0.557501  0.880927  0.764730  1
  Si  Si986  1  0.442487  0.880926  0.764730  1
  Si  Si987  1  0.442483  0.119198  0.764730  1
  Si  Si988  1  0.557495  0.119203  0.764730  1
  Si  Si989  1  0.607151  0.691183  0.779822  1
  Si  Si990  1  0.392830  0.691168  0.779821  1
  Si  Si991  1  0.392835  0.308931  0.779824  1
  Si  Si992  1  0.607145  0.308946  0.779823  1
  Si  Si993  1  0.941683  0.118830  0.747251  1
  Si  Si994  1  0.909508  0.250049  0.774756  1
  Si  Si995  1  0.909505  0.750054  0.774756  1
  Si  Si996  1  0.819130  0.619209  0.764808  1
  Si  Si997  1  0.942216  0.880903  0.802226  1
  Si  Si998  1  0.819150  0.380911  0.764817  1
  Si  Si999  1  0.942208  0.119194  0.802224  1
  Si  Si1000  1  0.704566  0.619809  0.764728  1
  Si  Si1001  1  0.704585  0.380294  0.764731  1
  Si  Si1002  1  0.941681  0.881262  0.747250  1
  Si  Si1003  1  -0.000000  0.381264  0.764976  1
  Si  Si1004  1  -0.000000  0.618825  0.764975  1
  H  H1005  1  0.067961  0.858162  0.056718  1
  H  H1006  1  0.067960  0.141927  0.056719  1
  H  H1007  1  0.591908  0.673224  0.079344  1
  H  H1008  1  0.408055  0.326877  0.079343  1
  H  H1009  1  0.591910  0.326887  0.079345  1
  H  H1010  1  0.408058  0.673220  0.079345  1
  H  H1011  1  0.932018  0.141939  0.056718  1
  H  H1012  1  0.932013  0.858160  0.056717  1
  H  H1013  1  0.067966  0.141940  0.829850  1
  H  H1014  1  0.067925  0.858152  0.829846  1
  H  H1015  1  0.408066  0.673231  0.807221  1
  H  H1016  1  0.591910  0.326892  0.807221  1
  H  H1017  1  0.408066  0.326877  0.807222  1
  H  H1018  1  0.591915  0.673241  0.807218  1
  H  H1019  1  0.932014  0.858168  0.829850  1
  H  H1020  1  0.932014  0.141936  0.829849  1
