# generated using pymatgen
data_Si48H2O97
_symmetry_space_group_name_H-M   'P 1'
_cell_length_a   14.22215015
_cell_length_b   20.03147368
_cell_length_c   96.90540097
_cell_angle_alpha   90.00000000
_cell_angle_beta   90.00000000
_cell_angle_gamma   90.00000000
_symmetry_Int_Tables_number   1
_chemical_formula_structural   Si48H2O97
_chemical_formula_sum   'Si384 H16 O776'
_cell_volume   27607.4403847
_cell_formula_units_Z   8
loop_
 _symmetry_equiv_pos_site_id
 _symmetry_equiv_pos_as_xyz
  1  'x, y, z'
loop_
 _atom_site_type_symbol
 _atom_site_label
 _atom_site_symmetry_multiplicity
 _atom_site_fract_x
 _atom_site_fract_y
 _atom_site_fract_z
 _atom_site_occupancy
  O  O1  1  0.907537  0.955410  0.409579  1
  O  O2  1  0.092495  0.955406  0.409578  1
  O  O3  1  0.092507  0.544534  0.409576  1
  O  O4  1  0.907545  0.544507  0.409577  1
  O  O5  1  0.000000  0.875991  0.393382  1
  O  O6  1  0.000000  0.623923  0.393377  1
  O  O7  1  0.092782  0.838295  0.372252  1
  O  O8  1  0.907206  0.838280  0.372256  1
  O  O9  1  0.907212  0.661641  0.372247  1
  O  O10  1  0.092790  0.661629  0.372249  1
  O  O11  1  0.000000  0.749954  0.384987  1
  O  O12  1  0.000000  0.749964  0.322550  1
  O  O13  1  0.909978  0.845628  0.334177  1
  O  O14  1  0.090041  0.845801  0.334132  1
  O  O15  1  0.090071  0.654124  0.334132  1
  O  O16  1  0.910011  0.654218  0.334170  1
  O  O17  1  0.000000  0.873132  0.312688  1
  O  O18  1  -0.000000  0.626833  0.312684  1
  O  O19  1  0.903425  0.557445  0.295924  1
  O  O20  1  0.096021  0.558717  0.295795  1
  O  O21  1  0.095947  0.941251  0.295797  1
  O  O22  1  0.903359  0.942594  0.295936  1
  O  O23  1  0.760890  0.948802  0.425814  1
  O  O24  1  0.239132  0.948796  0.425818  1
  O  O25  1  0.239133  0.551131  0.425816  1
  O  O26  1  0.760882  0.551127  0.425809  1
  O  O27  1  0.745314  0.949430  0.399113  1
  O  O28  1  0.254733  0.949318  0.399119  1
  O  O29  1  0.254750  0.550606  0.399117  1
  O  O30  1  0.745341  0.550513  0.399106  1
  O  O31  1  0.786715  0.845482  0.352887  1
  O  O32  1  0.213151  0.845428  0.352869  1
  O  O33  1  0.213179  0.654537  0.352868  1
  O  O34  1  0.786719  0.654502  0.352873  1
  O  O35  1  0.739718  0.874570  0.377762  1
  O  O36  1  0.260310  0.874560  0.377743  1
  O  O37  1  0.260323  0.625369  0.377741  1
  O  O38  1  0.739726  0.625336  0.377748  1
  O  O39  1  0.779935  0.749957  0.370558  1
  O  O40  1  0.220018  0.749968  0.370553  1
  O  O41  1  0.739843  0.848103  0.326666  1
  O  O42  1  0.260240  0.848071  0.326671  1
  O  O43  1  0.260272  0.651915  0.326669  1
  O  O44  1  0.739921  0.651912  0.326649  1
  O  O45  1  0.812621  0.949935  0.338321  1
  O  O46  1  0.187522  0.949988  0.338336  1
  O  O47  1  0.187668  0.549973  0.338340  1
  O  O48  1  0.812402  0.549997  0.338326  1
  O  O49  1  0.759789  0.948924  0.279115  1
  O  O50  1  0.240483  0.949030  0.279152  1
  O  O51  1  0.240540  0.550911  0.279155  1
  O  O52  1  0.759779  0.550870  0.279127  1
  O  O53  1  0.747940  0.000000  0.302505  1
  O  O54  1  0.754423  0.873743  0.301098  1
  O  O55  1  0.246104  0.874024  0.301140  1
  O  O56  1  0.246176  0.625967  0.301137  1
  O  O57  1  0.754539  0.626424  0.301065  1
  O  O58  1  0.302064  0.874102  0.446266  1
  O  O59  1  0.697992  0.874112  0.446268  1
  O  O60  1  0.697953  0.625824  0.446260  1
  O  O61  1  0.302035  0.625811  0.446267  1
  O  O62  1  0.589487  0.946940  0.431318  1
  O  O63  1  0.410556  0.946934  0.431313  1
  O  O64  1  0.410545  0.552983  0.431314  1
  O  O65  1  0.589474  0.552991  0.431311  1
  O  O66  1  0.594945  0.948949  0.385352  1
  O  O67  1  0.405113  0.948905  0.385357  1
  O  O68  1  0.405127  0.551018  0.385354  1
  O  O69  1  0.594960  0.550978  0.385350  1
  O  O70  1  0.594903  0.837406  0.310112  1
  O  O71  1  0.405256  0.837349  0.310135  1
  O  O72  1  0.405309  0.662681  0.310139  1
  O  O73  1  0.594985  0.662638  0.310103  1
  O  O74  1  0.725804  0.750050  0.309789  1
  O  O75  1  0.274375  0.749996  0.309778  1
  O  O76  1  0.590807  0.948978  0.271760  1
  O  O77  1  0.409378  0.949190  0.271824  1
  O  O78  1  0.409403  0.550835  0.271819  1
  O  O79  1  0.590835  0.551076  0.271766  1
  O  O80  1  0.500045  0.961476  0.407920  1
  O  O81  1  0.500030  0.538442  0.407917  1
  O  O82  1  0.500071  0.750017  0.297626  1
  O  O83  1  0.499928  0.874950  0.289124  1
  O  O84  1  0.499914  0.625079  0.289127  1
  O  O85  1  0.000000  0.500162  0.313723  1
  O  O86  1  0.000000  0.000000  0.313730  1
  O  O87  1  0.748080  0.500670  0.302600  1
  O  O88  1  0.000000  0.000000  0.389802  1
  O  O89  1  0.000000  0.499023  0.389803  1
  O  O90  1  0.500000  0.249971  0.282581  1
  O  O91  1  0.409948  0.345680  0.270961  1
  O  O92  1  0.590012  0.345780  0.270995  1
  O  O93  1  0.589976  0.154077  0.271001  1
  O  O94  1  0.409914  0.154264  0.270962  1
  O  O95  1  0.499598  0.373152  0.292441  1
  O  O96  1  0.499515  0.126835  0.292447  1
  O  O97  1  0.403351  0.057389  0.309199  1
  O  O98  1  0.595943  0.058718  0.309338  1
  O  O99  1  0.596008  0.441328  0.309326  1
  O  O100  1  0.403422  0.442582  0.309197  1
  O  O101  1  0.500087  0.358004  0.408326  1
  O  O102  1  0.500089  0.141921  0.408328  1
  O  O103  1  0.594145  0.342826  0.386304  1
  O  O104  1  0.406025  0.342807  0.386312  1
  O  O105  1  0.406013  0.157112  0.386313  1
  O  O106  1  0.594132  0.157090  0.386304  1
  O  O107  1  0.500042  0.448218  0.390347  1
  O  O108  1  0.500024  0.051703  0.390351  1
  O  O109  1  0.500022  0.448194  0.426066  1
  O  O110  1  0.500024  0.051727  0.426067  1
  O  O111  1  0.410193  0.341466  0.431052  1
  O  O112  1  0.589872  0.341473  0.431054  1
  O  O113  1  0.589864  0.158446  0.431059  1
  O  O114  1  0.410183  0.158449  0.431053  1
  O  O115  1  0.794790  0.053066  0.411735  1
  O  O116  1  0.205288  0.053034  0.411730  1
  O  O117  1  0.205286  0.446893  0.411728  1
  O  O118  1  0.794779  0.446860  0.411730  1
  O  O119  1  0.239855  0.348097  0.278477  1
  O  O120  1  0.760245  0.348085  0.278453  1
  O  O121  1  0.760169  0.151933  0.278473  1
  O  O122  1  0.239819  0.151889  0.278479  1
  O  O123  1  0.312558  0.449974  0.266813  1
  O  O124  1  0.687499  0.449984  0.266797  1
  O  O125  1  0.687722  0.049967  0.266790  1
  O  O126  1  0.312444  0.049998  0.266811  1
  O  O127  1  0.259816  0.449044  0.326006  1
  O  O128  1  0.740522  0.448993  0.325979  1
  O  O129  1  0.740516  0.050783  0.325969  1
  O  O130  1  0.259773  0.050881  0.326005  1
  O  O131  1  0.247953  -0.000000  0.302554  1
  O  O132  1  0.248009  0.499457  0.302569  1
  O  O133  1  0.254504  0.373643  0.304052  1
  O  O134  1  0.746148  0.374102  0.303979  1
  O  O135  1  0.746036  0.126068  0.304014  1
  O  O136  1  0.254439  0.126347  0.304056  1
  O  O137  1  0.284373  0.249962  0.382647  1
  O  O138  1  0.715744  0.249952  0.382631  1
  O  O139  1  0.247962  0.373663  0.374887  1
  O  O140  1  0.752175  0.373647  0.374865  1
  O  O141  1  0.752149  0.126256  0.374863  1
  O  O142  1  0.247943  0.126262  0.374888  1
  O  O143  1  0.255390  0.341574  0.400026  1
  O  O144  1  0.744783  0.341557  0.400009  1
  O  O145  1  0.744771  0.158344  0.400008  1
  O  O146  1  0.255376  0.158356  0.400027  1
  O  O147  1  0.238893  0.344632  0.426385  1
  O  O148  1  0.761159  0.344591  0.426376  1
  O  O149  1  0.761144  0.155336  0.426376  1
  O  O150  1  0.238880  0.155291  0.426387  1
  O  O151  1  0.307431  0.249959  0.441080  1
  O  O152  1  0.692622  0.249961  0.441080  1
  O  O153  1  0.701048  0.499968  0.448397  1
  O  O154  1  0.094925  0.337377  0.295024  1
  O  O155  1  0.905276  0.337360  0.294995  1
  O  O156  1  0.905197  0.162662  0.295009  1
  O  O157  1  0.094875  0.162642  0.295021  1
  O  O158  1  0.225770  0.249995  0.295347  1
  O  O159  1  0.774329  0.250047  0.295353  1
  O  O160  1  0.090849  0.448947  0.333360  1
  O  O161  1  0.909420  0.449245  0.333312  1
  O  O162  1  0.909375  0.050799  0.333307  1
  O  O163  1  0.090833  0.051086  0.333361  1
  O  O164  1  0.214825  0.444821  0.352580  1
  O  O165  1  0.785492  0.444788  0.352550  1
  O  O166  1  0.785441  0.055106  0.352547  1
  O  O167  1  0.214811  0.055109  0.352581  1
  O  O168  1  0.094594  0.439718  0.371941  1
  O  O169  1  0.905511  0.439715  0.371933  1
  O  O170  1  0.905493  0.060203  0.371929  1
  O  O171  1  0.094574  0.060202  0.371941  1
  O  O172  1  0.092084  0.346822  0.410501  1
  O  O173  1  0.908018  0.346816  0.410501  1
  O  O174  1  0.908006  0.153114  0.410501  1
  O  O175  1  0.092070  0.153093  0.410501  1
  O  O176  1  0.000000  0.250009  0.307508  1
  O  O177  1  0.000000  0.374946  0.316006  1
  O  O178  1  0.000000  0.125061  0.316006  1
  O  O179  1  0.000000  0.371825  0.389261  1
  O  O180  1  0.000000  0.128091  0.389261  1
  O  O181  1  0.000000  0.249959  0.399411  1
  O  O182  1  0.250856  0.499505  0.375598  1
  O  O183  1  0.749237  0.499483  0.375572  1
  O  O184  1  0.500750  0.499850  0.291397  1
  O  O185  1  0.749237  -0.000000  0.375572  1
  O  O186  1  0.250841  -0.000000  0.375599  1
  O  O187  1  0.500761  0.000000  0.291401  1
  O  O188  1  0.407454  0.955436  0.117913  1
  O  O189  1  0.592412  0.955411  0.117909  1
  O  O190  1  0.592417  0.544527  0.117907  1
  O  O191  1  0.407457  0.544550  0.117908  1
  O  O192  1  0.499926  0.500913  0.215327  1
  O  O193  1  0.499898  0.000000  0.215326  1
  O  O194  1  0.499867  0.876010  0.101713  1
  O  O195  1  0.499978  0.623943  0.101709  1
  O  O196  1  0.592690  0.838319  0.080590  1
  O  O197  1  0.407115  0.838293  0.080578  1
  O  O198  1  0.407166  0.661642  0.080585  1
  O  O199  1  0.592740  0.661664  0.080575  1
  O  O200  1  0.499925  0.749976  0.093318  1
  O  O201  1  0.000000  0.858044  0.196805  1
  O  O202  1  0.000000  0.641935  0.196803  1
  O  O203  1  0.094001  0.842861  0.218830  1
  O  O204  1  0.905878  0.842830  0.218813  1
  O  O205  1  0.905901  0.657130  0.218816  1
  O  O206  1  0.094021  0.657107  0.218829  1
  O  O207  1  0.000000  0.948252  0.214785  1
  O  O208  1  0.000000  0.551718  0.214782  1
  O  O209  1  0.000000  0.948230  0.179065  1
  O  O210  1  0.000000  0.551745  0.179064  1
  O  O211  1  0.910048  0.841501  0.174084  1
  O  O212  1  0.089726  0.841501  0.174072  1
  O  O213  1  0.089745  0.658461  0.174072  1
  O  O214  1  0.910066  0.658479  0.174081  1
  O  O215  1  0.260798  0.948803  0.134146  1
  O  O216  1  0.739038  0.948845  0.134150  1
  O  O217  1  0.739086  0.551169  0.134138  1
  O  O218  1  0.260838  0.551137  0.134150  1
  O  O219  1  0.294639  0.553082  0.193403  1
  O  O220  1  0.705146  0.553046  0.193396  1
  O  O221  1  0.705155  0.946922  0.193402  1
  O  O222  1  0.294653  0.946891  0.193403  1
  O  O223  1  0.245250  0.949364  0.107442  1
  O  O224  1  0.754667  0.949399  0.107453  1
  O  O225  1  0.754610  0.550595  0.107435  1
  O  O226  1  0.245201  0.550568  0.107452  1
  O  O227  1  0.286644  0.845379  0.061196  1
  O  O228  1  0.713094  0.845545  0.061218  1
  O  O229  1  0.713182  0.654599  0.061191  1
  O  O230  1  0.286738  0.654438  0.061214  1
  O  O231  1  0.239620  0.874574  0.086073  1
  O  O232  1  0.760212  0.874588  0.086091  1
  O  O233  1  0.760246  0.625381  0.086065  1
  O  O234  1  0.239652  0.625365  0.086088  1
  O  O235  1  0.279888  0.749958  0.078887  1
  O  O236  1  0.719963  0.749999  0.078885  1
  O  O237  1  0.784245  0.749971  0.222478  1
  O  O238  1  0.215606  0.749988  0.222502  1
  O  O239  1  0.747807  0.873669  0.230234  1
  O  O240  1  0.252027  0.873685  0.230270  1
  O  O241  1  0.252051  0.626290  0.230269  1
  O  O242  1  0.747842  0.626271  0.230240  1
  O  O243  1  0.755251  0.841577  0.205097  1
  O  O244  1  0.244637  0.841596  0.205125  1
  O  O245  1  0.244659  0.658386  0.205125  1
  O  O246  1  0.755265  0.658354  0.205101  1
  O  O247  1  0.738734  0.844671  0.178739  1
  O  O248  1  0.261003  0.844620  0.178759  1
  O  O249  1  0.261023  0.655354  0.178758  1
  O  O250  1  0.738760  0.655309  0.178741  1
  O  O251  1  0.802004  0.874130  0.154593  1
  O  O252  1  0.197909  0.874131  0.154601  1
  O  O253  1  0.197917  0.625836  0.154600  1
  O  O254  1  0.801993  0.625848  0.154592  1
  O  O255  1  0.807318  0.749988  0.164051  1
  O  O256  1  0.192503  0.749984  0.164054  1
  O  O257  1  0.089398  0.946963  0.139651  1
  O  O258  1  0.910469  0.946968  0.139641  1
  O  O259  1  0.910486  0.553007  0.139645  1
  O  O260  1  0.089415  0.553021  0.139643  1
  O  O261  1  0.201004  -0.000000  0.156734  1
  O  O262  1  0.094877  0.948955  0.093682  1
  O  O263  1  0.905044  0.948926  0.093690  1
  O  O264  1  0.904995  0.551011  0.093679  1
  O  O265  1  0.094829  0.551031  0.093688  1
  O  O266  1  0.714769  0.944818  0.252543  1
  O  O267  1  0.285432  0.944820  0.252583  1
  O  O268  1  0.285434  0.555136  0.252581  1
  O  O269  1  0.714803  0.555102  0.252547  1
  O  O270  1  0.594463  0.939744  0.233187  1
  O  O271  1  0.405381  0.939736  0.233196  1
  O  O272  1  0.405393  0.560220  0.233196  1
  O  O273  1  0.594475  0.560222  0.233192  1
  O  O274  1  0.591932  0.846854  0.194626  1
  O  O275  1  0.407866  0.846833  0.194630  1
  O  O276  1  0.407887  0.653118  0.194631  1
  O  O277  1  0.591952  0.653117  0.194628  1
  O  O278  1  -0.000000  0.961504  0.116251  1
  O  O279  1  -0.000000  0.538469  0.116249  1
  O  O280  1  0.499907  0.871842  0.215868  1
  O  O281  1  0.499929  0.628112  0.215869  1
  O  O282  1  0.499928  0.749978  0.205717  1
  O  O283  1  0.798917  0.000000  0.156733  1
  O  O284  1  0.249113  0.500454  0.229559  1
  O  O285  1  0.750724  0.500426  0.229528  1
  O  O286  1  0.750744  0.000000  0.229527  1
  O  O287  1  0.249121  0.000000  0.229561  1
  O  O288  1  0.407418  0.455440  0.195554  1
  O  O289  1  0.592375  0.455403  0.195551  1
  O  O290  1  0.592383  0.044563  0.195554  1
  O  O291  1  0.407421  0.044544  0.195556  1
  O  O292  1  0.499926  0.000000  0.098136  1
  O  O293  1  0.499926  0.499043  0.098134  1
  O  O294  1  0.499881  0.376008  0.211751  1
  O  O295  1  0.499896  0.123945  0.211757  1
  O  O296  1  0.592678  0.338310  0.232879  1
  O  O297  1  0.407103  0.338306  0.232881  1
  O  O298  1  0.407100  0.161661  0.232885  1
  O  O299  1  0.592674  0.161648  0.232888  1
  O  O300  1  0.499894  0.249974  0.220147  1
  O  O301  1  0.000000  0.358029  0.116657  1
  O  O302  1  0.000000  0.141944  0.116658  1
  O  O303  1  0.093973  0.342818  0.094644  1
  O  O304  1  0.905853  0.342866  0.094633  1
  O  O305  1  0.905892  0.157146  0.094643  1
  O  O306  1  0.094012  0.157100  0.094636  1
  O  O307  1  0.000000  0.448243  0.098679  1
  O  O308  1  0.000000  0.051723  0.098680  1
  O  O309  1  0.000000  0.448221  0.134397  1
  O  O310  1  0.000000  0.051756  0.134398  1
  O  O311  1  0.910110  0.341502  0.139387  1
  O  O312  1  0.089790  0.341491  0.139382  1
  O  O313  1  0.089771  0.158479  0.139388  1
  O  O314  1  0.910089  0.158476  0.139383  1
  O  O315  1  0.260761  0.448818  0.179322  1
  O  O316  1  0.739000  0.448812  0.179308  1
  O  O317  1  0.739020  0.051158  0.179314  1
  O  O318  1  0.260774  0.051158  0.179323  1
  O  O319  1  0.294657  0.053055  0.120064  1
  O  O320  1  0.705156  0.053083  0.120060  1
  O  O321  1  0.705214  0.446909  0.120058  1
  O  O322  1  0.294702  0.446890  0.120064  1
  O  O323  1  0.245213  0.449421  0.206025  1
  O  O324  1  0.754631  0.449339  0.206007  1
  O  O325  1  0.754623  0.050645  0.206012  1
  O  O326  1  0.245213  0.050547  0.206025  1
  O  O327  1  0.286653  0.345486  0.252257  1
  O  O328  1  0.713100  0.345463  0.252255  1
  O  O329  1  0.713087  0.154554  0.252270  1
  O  O330  1  0.286622  0.154503  0.252258  1
  O  O331  1  0.239607  0.374601  0.227383  1
  O  O332  1  0.760197  0.374562  0.227379  1
  O  O333  1  0.760191  0.125383  0.227393  1
  O  O334  1  0.239607  0.125373  0.227384  1
  O  O335  1  0.279836  0.249988  0.234578  1
  O  O336  1  0.719911  0.249974  0.234580  1
  O  O337  1  0.784253  0.250001  0.090966  1
  O  O338  1  0.215619  0.249962  0.090973  1
  O  O339  1  0.747818  0.373696  0.083192  1
  O  O340  1  0.252028  0.373661  0.083220  1
  O  O341  1  0.252055  0.126265  0.083199  1
  O  O342  1  0.747842  0.126293  0.083217  1
  O  O343  1  0.755211  0.341626  0.108337  1
  O  O344  1  0.244606  0.341559  0.108359  1
  O  O345  1  0.244641  0.158336  0.108345  1
  O  O346  1  0.755251  0.158415  0.108355  1
  O  O347  1  0.738828  0.344627  0.134702  1
  O  O348  1  0.261096  0.344641  0.134719  1
  O  O349  1  0.261054  0.155336  0.134710  1
  O  O350  1  0.738785  0.155330  0.134715  1
  O  O351  1  0.801941  0.374136  0.158859  1
  O  O352  1  0.197871  0.374127  0.158869  1
  O  O353  1  0.197908  0.125838  0.158866  1
  O  O354  1  0.801981  0.125848  0.158866  1
  O  O355  1  0.807337  0.249990  0.149408  1
  O  O356  1  0.192534  0.249983  0.149412  1
  O  O357  1  0.089358  0.446957  0.173815  1
  O  O358  1  0.910427  0.446952  0.173817  1
  O  O359  1  0.910452  0.053032  0.173823  1
  O  O360  1  0.089382  0.053016  0.173815  1
  O  O361  1  0.798869  0.499992  0.156727  1
  O  O362  1  0.094835  0.448959  0.219781  1
  O  O363  1  0.905003  0.448918  0.219772  1
  O  O364  1  0.905004  0.051063  0.219774  1
  O  O365  1  0.094839  0.051005  0.219784  1
  O  O366  1  0.714494  0.444895  0.060884  1
  O  O367  1  0.285150  0.444761  0.060906  1
  O  O368  1  0.285334  0.055066  0.060891  1
  O  O369  1  0.714699  0.055172  0.060906  1
  O  O370  1  0.594451  0.439746  0.080263  1
  O  O371  1  0.405368  0.439734  0.080270  1
  O  O372  1  0.405418  0.060216  0.080266  1
  O  O373  1  0.594501  0.060216  0.080272  1
  O  O374  1  0.591974  0.346851  0.118828  1
  O  O375  1  0.407910  0.346836  0.118833  1
  O  O376  1  0.407892  0.153112  0.118832  1
  O  O377  1  0.591958  0.153140  0.118832  1
  O  O378  1  0.000000  0.461495  0.197211  1
  O  O379  1  0.000000  0.038474  0.197214  1
  O  O380  1  0.499929  0.371846  0.097591  1
  O  O381  1  0.499933  0.128111  0.097593  1
  O  O382  1  0.499922  0.249982  0.107742  1
  O  O383  1  0.200967  0.499982  0.156734  1
  O  O384  1  0.249174  -0.000000  0.083914  1
  O  O385  1  0.750784  0.000000  0.083925  1
  O  O386  1  0.750709  0.499532  0.083906  1
  O  O387  1  0.249092  0.499502  0.083925  1
  O  O388  1  0.407454  0.955436  0.701252  1
  O  O389  1  0.592412  0.955411  0.701249  1
  O  O390  1  0.592417  0.544527  0.701247  1
  O  O391  1  0.407457  0.544550  0.701247  1
  O  O392  1  0.499926  0.500913  0.798667  1
  O  O393  1  0.499898  0.000000  0.798665  1
  O  O394  1  0.499867  0.876010  0.685052  1
  O  O395  1  0.499978  0.623943  0.685048  1
  O  O396  1  0.592690  0.838319  0.663929  1
  O  O397  1  0.407115  0.838293  0.663917  1
  O  O398  1  0.407166  0.661642  0.663925  1
  O  O399  1  0.592740  0.661664  0.663915  1
  O  O400  1  0.499925  0.749976  0.676658  1
  O  O401  1  0.000000  0.858044  0.780144  1
  O  O402  1  0.000000  0.641935  0.780143  1
  O  O403  1  0.094001  0.842861  0.802169  1
  O  O404  1  0.905878  0.842830  0.802153  1
  O  O405  1  0.905901  0.657130  0.802155  1
  O  O406  1  0.094021  0.657107  0.802168  1
  O  O407  1  0.000000  0.948252  0.798124  1
  O  O408  1  0.000000  0.551718  0.798121  1
  O  O409  1  0.000000  0.948230  0.762404  1
  O  O410  1  0.000000  0.551745  0.762404  1
  O  O411  1  0.910048  0.841501  0.757424  1
  O  O412  1  0.089726  0.841501  0.757411  1
  O  O413  1  0.089745  0.658461  0.757411  1
  O  O414  1  0.910066  0.658479  0.757420  1
  O  O415  1  0.260798  0.948803  0.717485  1
  O  O416  1  0.739038  0.948845  0.717489  1
  O  O417  1  0.739086  0.551169  0.717477  1
  O  O418  1  0.260838  0.551137  0.717490  1
  O  O419  1  0.294639  0.553082  0.776742  1
  O  O420  1  0.705146  0.553046  0.776736  1
  O  O421  1  0.705155  0.946922  0.776741  1
  O  O422  1  0.294653  0.946891  0.776742  1
  O  O423  1  0.245250  0.949364  0.690782  1
  O  O424  1  0.754667  0.949399  0.690792  1
  O  O425  1  0.754610  0.550595  0.690774  1
  O  O426  1  0.245201  0.550568  0.690792  1
  O  O427  1  0.286644  0.845379  0.644536  1
  O  O428  1  0.713094  0.845545  0.644558  1
  O  O429  1  0.713182  0.654599  0.644531  1
  O  O430  1  0.286738  0.654438  0.644553  1
  O  O431  1  0.239620  0.874574  0.669412  1
  O  O432  1  0.760212  0.874588  0.669431  1
  O  O433  1  0.760246  0.625381  0.669405  1
  O  O434  1  0.239652  0.625365  0.669427  1
  O  O435  1  0.279888  0.749958  0.662226  1
  O  O436  1  0.719963  0.749999  0.662225  1
  O  O437  1  0.784245  0.749971  0.805817  1
  O  O438  1  0.215606  0.749988  0.805842  1
  O  O439  1  0.747807  0.873669  0.813574  1
  O  O440  1  0.252027  0.873685  0.813609  1
  O  O441  1  0.252051  0.626290  0.813609  1
  O  O442  1  0.747842  0.626271  0.813579  1
  O  O443  1  0.755251  0.841577  0.788437  1
  O  O444  1  0.244637  0.841596  0.788465  1
  O  O445  1  0.244659  0.658386  0.788464  1
  O  O446  1  0.755265  0.658354  0.788440  1
  O  O447  1  0.738734  0.844671  0.762079  1
  O  O448  1  0.261003  0.844620  0.762099  1
  O  O449  1  0.261023  0.655354  0.762097  1
  O  O450  1  0.738760  0.655309  0.762081  1
  O  O451  1  0.802004  0.874130  0.737932  1
  O  O452  1  0.197909  0.874131  0.737940  1
  O  O453  1  0.197917  0.625836  0.737939  1
  O  O454  1  0.801993  0.625848  0.737931  1
  O  O455  1  0.807318  0.749988  0.747391  1
  O  O456  1  0.192503  0.749984  0.747393  1
  O  O457  1  0.089398  0.946963  0.722990  1
  O  O458  1  0.910469  0.946968  0.722981  1
  O  O459  1  0.910486  0.553007  0.722985  1
  O  O460  1  0.089415  0.553021  0.722982  1
  O  O461  1  0.201004  0.000000  0.740074  1
  O  O462  1  0.094877  0.948955  0.677022  1
  O  O463  1  0.905044  0.948926  0.677030  1
  O  O464  1  0.904995  0.551011  0.677019  1
  O  O465  1  0.094829  0.551031  0.677027  1
  O  O466  1  0.714769  0.944818  0.835882  1
  O  O467  1  0.285432  0.944820  0.835922  1
  O  O468  1  0.285434  0.555136  0.835921  1
  O  O469  1  0.714803  0.555102  0.835887  1
  O  O470  1  0.594463  0.939744  0.816527  1
  O  O471  1  0.405381  0.939736  0.816536  1
  O  O472  1  0.405393  0.560220  0.816535  1
  O  O473  1  0.594475  0.560222  0.816532  1
  O  O474  1  0.591932  0.846854  0.777966  1
  O  O475  1  0.407866  0.846833  0.777970  1
  O  O476  1  0.407887  0.653118  0.777971  1
  O  O477  1  0.591952  0.653117  0.777967  1
  O  O478  1  0.000000  0.961504  0.699590  1
  O  O479  1  0.000000  0.538469  0.699588  1
  O  O480  1  0.499907  0.871842  0.799208  1
  O  O481  1  0.499929  0.628112  0.799208  1
  O  O482  1  0.499928  0.749978  0.789056  1
  O  O483  1  0.798917  0.000000  0.740073  1
  O  O484  1  0.249113  0.500454  0.812899  1
  O  O485  1  0.750724  0.500426  0.812867  1
  O  O486  1  0.750744  0.000000  0.812867  1
  O  O487  1  0.249121  0.000000  0.812901  1
  O  O488  1  0.407418  0.455440  0.778894  1
  O  O489  1  0.592375  0.455403  0.778891  1
  O  O490  1  0.592383  0.044563  0.778893  1
  O  O491  1  0.407421  0.044544  0.778895  1
  O  O492  1  0.499926  0.000000  0.681476  1
  O  O493  1  0.499926  0.499043  0.681473  1
  O  O494  1  0.499881  0.376008  0.795091  1
  O  O495  1  0.499896  0.123945  0.795097  1
  O  O496  1  0.592678  0.338310  0.816218  1
  O  O497  1  0.407103  0.338306  0.816221  1
  O  O498  1  0.407100  0.161661  0.816225  1
  O  O499  1  0.592674  0.161648  0.816227  1
  O  O500  1  0.499894  0.249974  0.803486  1
  O  O501  1  0.000000  0.358029  0.699997  1
  O  O502  1  0.000000  0.141944  0.699997  1
  O  O503  1  0.093973  0.342818  0.677984  1
  O  O504  1  0.905853  0.342866  0.677972  1
  O  O505  1  0.905892  0.157146  0.677982  1
  O  O506  1  0.094012  0.157100  0.677975  1
  O  O507  1  0.000000  0.448243  0.682018  1
  O  O508  1  0.000000  0.051723  0.682019  1
  O  O509  1  0.000000  0.448221  0.717737  1
  O  O510  1  0.000000  0.051756  0.717737  1
  O  O511  1  0.910110  0.341502  0.722727  1
  O  O512  1  0.089790  0.341491  0.722721  1
  O  O513  1  0.089771  0.158479  0.722727  1
  O  O514  1  0.910089  0.158476  0.722723  1
  O  O515  1  0.260761  0.448818  0.762662  1
  O  O516  1  0.739000  0.448812  0.762648  1
  O  O517  1  0.739020  0.051158  0.762653  1
  O  O518  1  0.260774  0.051158  0.762663  1
  O  O519  1  0.294657  0.053055  0.703404  1
  O  O520  1  0.705156  0.053083  0.703400  1
  O  O521  1  0.705214  0.446909  0.703398  1
  O  O522  1  0.294702  0.446890  0.703403  1
  O  O523  1  0.245213  0.449421  0.789364  1
  O  O524  1  0.754631  0.449339  0.789346  1
  O  O525  1  0.754623  0.050645  0.789352  1
  O  O526  1  0.245213  0.050547  0.789365  1
  O  O527  1  0.286653  0.345486  0.835596  1
  O  O528  1  0.713100  0.345463  0.835595  1
  O  O529  1  0.713087  0.154554  0.835610  1
  O  O530  1  0.286622  0.154503  0.835598  1
  O  O531  1  0.239607  0.374601  0.810723  1
  O  O532  1  0.760197  0.374562  0.810719  1
  O  O533  1  0.760191  0.125383  0.810733  1
  O  O534  1  0.239607  0.125373  0.810723  1
  O  O535  1  0.279836  0.249988  0.817918  1
  O  O536  1  0.719911  0.249974  0.817919  1
  O  O537  1  0.784253  0.250001  0.674306  1
  O  O538  1  0.215619  0.249962  0.674312  1
  O  O539  1  0.747818  0.373696  0.666531  1
  O  O540  1  0.252028  0.373661  0.666560  1
  O  O541  1  0.252055  0.126265  0.666539  1
  O  O542  1  0.747842  0.126293  0.666557  1
  O  O543  1  0.755211  0.341626  0.691677  1
  O  O544  1  0.244606  0.341559  0.691698  1
  O  O545  1  0.244641  0.158336  0.691684  1
  O  O546  1  0.755251  0.158415  0.691694  1
  O  O547  1  0.738828  0.344627  0.718042  1
  O  O548  1  0.261096  0.344641  0.718058  1
  O  O549  1  0.261054  0.155336  0.718049  1
  O  O550  1  0.738785  0.155330  0.718055  1
  O  O551  1  0.801941  0.374136  0.742199  1
  O  O552  1  0.197871  0.374127  0.742208  1
  O  O553  1  0.197908  0.125838  0.742205  1
  O  O554  1  0.801981  0.125848  0.742205  1
  O  O555  1  0.807337  0.249990  0.732748  1
  O  O556  1  0.192534  0.249983  0.732752  1
  O  O557  1  0.089358  0.446957  0.757155  1
  O  O558  1  0.910427  0.446952  0.757156  1
  O  O559  1  0.910452  0.053032  0.757163  1
  O  O560  1  0.089382  0.053016  0.757155  1
  O  O561  1  0.798869  0.499992  0.740066  1
  O  O562  1  0.094835  0.448959  0.803121  1
  O  O563  1  0.905003  0.448918  0.803112  1
  O  O564  1  0.905004  0.051063  0.803114  1
  O  O565  1  0.094839  0.051005  0.803124  1
  O  O566  1  0.714494  0.444895  0.644224  1
  O  O567  1  0.285150  0.444761  0.644246  1
  O  O568  1  0.285334  0.055066  0.644231  1
  O  O569  1  0.714699  0.055172  0.644246  1
  O  O570  1  0.594451  0.439746  0.663603  1
  O  O571  1  0.405368  0.439734  0.663609  1
  O  O572  1  0.405418  0.060216  0.663605  1
  O  O573  1  0.594501  0.060216  0.663612  1
  O  O574  1  0.591974  0.346851  0.702168  1
  O  O575  1  0.407910  0.346836  0.702173  1
  O  O576  1  0.407892  0.153112  0.702171  1
  O  O577  1  0.591958  0.153140  0.702172  1
  O  O578  1  0.000000  0.461495  0.780551  1
  O  O579  1  0.000000  0.038474  0.780554  1
  O  O580  1  0.499929  0.371846  0.680930  1
  O  O581  1  0.499933  0.128111  0.680932  1
  O  O582  1  0.499922  0.249982  0.691082  1
  O  O583  1  0.200967  0.499982  0.740073  1
  O  O584  1  0.249174  -0.000000  0.667253  1
  O  O585  1  0.750784  0.000000  0.667264  1
  O  O586  1  0.750709  0.499532  0.667246  1
  O  O587  1  0.249092  0.499502  0.667264  1
  O  O588  1  0.000000  0.500884  0.506995  1
  O  O589  1  0.000000  0.000000  0.506999  1
  O  O590  1  0.499883  0.749981  0.614220  1
  O  O591  1  0.409999  0.845740  0.625843  1
  O  O592  1  0.590058  0.845745  0.625808  1
  O  O593  1  0.589814  0.654229  0.625839  1
  O  O594  1  0.409754  0.654172  0.625803  1
  O  O595  1  0.499663  0.873151  0.604361  1
  O  O596  1  0.500175  0.626830  0.604355  1
  O  O597  1  0.403885  0.558548  0.587477  1
  O  O598  1  0.596481  0.557568  0.587587  1
  O  O599  1  0.595945  0.941456  0.587484  1
  O  O600  1  0.403348  0.942409  0.587595  1
  O  O601  1  0.500030  0.858002  0.488474  1
  O  O602  1  0.499951  0.641911  0.488472  1
  O  O603  1  0.594064  0.842844  0.510497  1
  O  O604  1  0.405945  0.842785  0.510488  1
  O  O605  1  0.405895  0.657076  0.510495  1
  O  O606  1  0.594016  0.657116  0.510485  1
  O  O607  1  0.499964  0.948214  0.506452  1
  O  O608  1  0.499968  0.551695  0.506451  1
  O  O609  1  0.500008  0.948197  0.470735  1
  O  O610  1  0.500014  0.551723  0.470732  1
  O  O611  1  0.410152  0.841471  0.465749  1
  O  O612  1  0.589831  0.841473  0.465743  1
  O  O613  1  0.589842  0.658452  0.465746  1
  O  O614  1  0.410162  0.658444  0.465743  1
  O  O615  1  0.794758  0.553053  0.485068  1
  O  O616  1  0.205253  0.553024  0.485069  1
  O  O617  1  0.205216  0.946869  0.485069  1
  O  O618  1  0.794709  0.946883  0.485071  1
  O  O619  1  0.239984  0.847784  0.618306  1
  O  O620  1  0.760350  0.848337  0.618367  1
  O  O621  1  0.759829  0.652181  0.618301  1
  O  O622  1  0.239463  0.651620  0.618363  1
  O  O623  1  0.312250  0.949867  0.629988  1
  O  O624  1  0.687283  0.950075  0.630010  1
  O  O625  1  0.687580  0.550105  0.629985  1
  O  O626  1  0.312453  0.549877  0.630014  1
  O  O627  1  0.259642  0.949027  0.570809  1
  O  O628  1  0.740364  0.949027  0.570813  1
  O  O629  1  0.740195  0.550940  0.570802  1
  O  O630  1  0.259458  0.550878  0.570814  1
  O  O631  1  0.247988  0.998908  0.594320  1
  O  O632  1  0.254654  0.873188  0.592720  1
  O  O633  1  0.746292  0.874485  0.592848  1
  O  O634  1  0.745163  0.626795  0.592713  1
  O  O635  1  0.253517  0.625502  0.592840  1
  O  O636  1  0.284289  0.749935  0.514161  1
  O  O637  1  0.715656  0.749975  0.514160  1
  O  O638  1  0.247899  0.873632  0.521917  1
  O  O639  1  0.752103  0.873666  0.521935  1
  O  O640  1  0.752074  0.626272  0.521908  1
  O  O641  1  0.247860  0.626239  0.521935  1
  O  O642  1  0.255303  0.841544  0.496778  1
  O  O643  1  0.744702  0.841600  0.496790  1
  O  O644  1  0.744650  0.658387  0.496772  1
  O  O645  1  0.255259  0.658310  0.496789  1
  O  O646  1  0.238848  0.844616  0.470416  1
  O  O647  1  0.761111  0.844603  0.470425  1
  O  O648  1  0.761143  0.655299  0.470412  1
  O  O649  1  0.238877  0.655302  0.470423  1
  O  O650  1  0.307399  0.749956  0.455722  1
  O  O651  1  0.692596  0.749966  0.455719  1
  O  O652  1  0.701086  -0.000000  0.448404  1
  O  O653  1  0.298986  0.000000  0.448402  1
  O  O654  1  0.095101  0.837191  0.601769  1
  O  O655  1  0.905434  0.837497  0.601821  1
  O  O656  1  0.904713  0.662777  0.601764  1
  O  O657  1  0.094381  0.662480  0.601817  1
  O  O658  1  0.225625  0.749529  0.601453  1
  O  O659  1  0.774193  0.750447  0.601451  1
  O  O660  1  0.090695  0.948859  0.563452  1
  O  O661  1  0.909270  0.949271  0.563484  1
  O  O662  1  0.909146  0.551114  0.563447  1
  O  O663  1  0.090577  0.550717  0.563478  1
  O  O664  1  0.214713  0.944746  0.544230  1
  O  O665  1  0.785389  0.944854  0.544245  1
  O  O666  1  0.785177  0.555180  0.544222  1
  O  O667  1  0.214526  0.555051  0.544243  1
  O  O668  1  0.094551  0.939701  0.524862  1
  O  O669  1  0.905470  0.939710  0.524869  1
  O  O670  1  0.905411  0.560197  0.524859  1
  O  O671  1  0.094493  0.560192  0.524864  1
  O  O672  1  0.092017  0.846809  0.486299  1
  O  O673  1  0.907952  0.846827  0.486301  1
  O  O674  1  0.907957  0.653111  0.486297  1
  O  O675  1  0.092023  0.653083  0.486298  1
  O  O676  1  0.000000  0.749991  0.589297  1
  O  O677  1  0.000000  0.874929  0.580799  1
  O  O678  1  0.000000  0.625055  0.580794  1
  O  O679  1  0.000000  0.871815  0.507540  1
  O  O680  1  0.000000  0.628084  0.507537  1
  O  O681  1  0.000000  0.749953  0.497387  1
  O  O682  1  0.499328  0.500143  0.605395  1
  O  O683  1  0.500490  0.000000  0.605402  1
  O  O684  1  0.751835  0.501075  0.594315  1
  O  O685  1  0.749130  0.500430  0.521205  1
  O  O686  1  0.250747  0.500401  0.521222  1
  O  O687  1  0.250829  0.000000  0.521211  1
  O  O688  1  0.749222  -0.000000  0.521224  1
  O  O689  1  0.907501  0.455383  0.487222  1
  O  O690  1  0.092460  0.455399  0.487221  1
  O  O691  1  0.092469  0.044534  0.487226  1
  O  O692  1  0.907510  0.044495  0.487225  1
  O  O693  1  -0.000000  0.375981  0.503421  1
  O  O694  1  0.000000  0.123916  0.503425  1
  O  O695  1  0.092774  0.338270  0.524554  1
  O  O696  1  0.907199  0.338294  0.524545  1
  O  O697  1  0.907149  0.161640  0.524559  1
  O  O698  1  0.092728  0.161617  0.524547  1
  O  O699  1  0.000000  0.249949  0.511816  1
  O  O700  1  0.000000  0.249976  0.574249  1
  O  O701  1  0.909770  0.345773  0.562665  1
  O  O702  1  0.089827  0.345721  0.562628  1
  O  O703  1  0.090071  0.154177  0.562667  1
  O  O704  1  0.910012  0.154187  0.562633  1
  O  O705  1  0.000000  0.373141  0.584111  1
  O  O706  1  0.000000  0.126833  0.584116  1
  O  O707  1  0.903352  0.057592  0.600886  1
  O  O708  1  0.095944  0.058550  0.600996  1
  O  O709  1  0.096482  0.442407  0.600879  1
  O  O710  1  0.903889  0.441434  0.600988  1
  O  O711  1  0.760889  0.448810  0.470980  1
  O  O712  1  0.239134  0.448772  0.470989  1
  O  O713  1  0.239107  0.051120  0.470985  1
  O  O714  1  0.760856  0.051145  0.470992  1
  O  O715  1  0.745238  0.449374  0.497678  1
  O  O716  1  0.254651  0.449339  0.497693  1
  O  O717  1  0.254714  0.050539  0.497684  1
  O  O718  1  0.745308  0.050568  0.497696  1
  O  O719  1  0.786760  0.345526  0.543914  1
  O  O720  1  0.213210  0.345364  0.543937  1
  O  O721  1  0.213125  0.154420  0.543919  1
  O  O722  1  0.786668  0.154586  0.543941  1
  O  O723  1  0.739688  0.374566  0.519040  1
  O  O724  1  0.260277  0.374552  0.519062  1
  O  O725  1  0.260253  0.125339  0.519047  1
  O  O726  1  0.739655  0.125354  0.519066  1
  O  O727  1  0.779922  0.249978  0.526247  1
  O  O728  1  0.220001  0.249937  0.526247  1
  O  O729  1  0.739476  0.348340  0.570105  1
  O  O730  1  0.259838  0.347786  0.570168  1
  O  O731  1  0.260357  0.151615  0.570110  1
  O  O732  1  0.739996  0.152172  0.570171  1
  O  O733  1  0.812499  0.450081  0.558458  1
  O  O734  1  0.187561  0.449857  0.558484  1
  O  O735  1  0.187363  0.049870  0.558459  1
  O  O736  1  0.812195  0.050080  0.558483  1
  O  O737  1  0.759458  0.449077  0.617654  1
  O  O738  1  0.240184  0.449017  0.617666  1
  O  O739  1  0.240368  0.050901  0.617661  1
  O  O740  1  0.759624  0.050903  0.617664  1
  O  O741  1  0.748056  0.001092  0.594141  1
  O  O742  1  0.251851  0.498912  0.594158  1
  O  O743  1  0.753527  0.374479  0.595626  1
  O  O744  1  0.245172  0.373189  0.595753  1
  O  O745  1  0.246308  0.125503  0.595632  1
  O  O746  1  0.754655  0.126802  0.595760  1
  O  O747  1  0.302075  0.374099  0.450536  1
  O  O748  1  0.697999  0.374113  0.450530  1
  O  O749  1  0.698011  0.125813  0.450534  1
  O  O750  1  0.302079  0.125817  0.450537  1
  O  O751  1  0.589471  0.446926  0.465485  1
  O  O752  1  0.410541  0.446939  0.465484  1
  O  O753  1  0.410535  0.052988  0.465493  1
  O  O754  1  0.589463  0.052994  0.465484  1
  O  O755  1  0.594864  0.448907  0.511442  1
  O  O756  1  0.405031  0.448921  0.511449  1
  O  O757  1  0.405088  0.051008  0.511446  1
  O  O758  1  0.594923  0.050971  0.511453  1
  O  O759  1  0.594389  0.337499  0.586652  1
  O  O760  1  0.404721  0.337193  0.586703  1
  O  O761  1  0.405440  0.162483  0.586654  1
  O  O762  1  0.595109  0.162779  0.586707  1
  O  O763  1  0.725629  0.250447  0.587019  1
  O  O764  1  0.274194  0.249530  0.587020  1
  O  O765  1  0.590566  0.449265  0.624989  1
  O  O766  1  0.409136  0.448867  0.625021  1
  O  O767  1  0.409254  0.050721  0.624995  1
  O  O768  1  0.590687  0.051132  0.625024  1
  O  O769  1  0.499953  0.461472  0.488880  1
  O  O770  1  0.500048  0.038443  0.488884  1
  O  O771  1  0.499917  0.249994  0.599175  1
  O  O772  1  0.499794  0.374929  0.607674  1
  O  O773  1  0.500014  0.125063  0.607678  1
  O  O774  1  0.000000  0.000000  0.583078  1
  O  O775  1  0.000000  0.499835  0.583072  1
  O  O776  1  0.298946  0.499956  0.448401  1
  Si  Si777  1  0.500087  0.673681  0.301872  1
  Si  Si778  1  0.500046  0.826355  0.301871  1
  Si  Si779  1  0.500039  0.525615  0.391916  1
  Si  Si780  1  0.500026  0.974307  0.391919  1
  Si  Si781  1  0.500008  0.525412  0.423899  1
  Si  Si782  1  0.500028  0.974508  0.423902  1
  Si  Si783  1  0.802167  0.975342  0.411857  1
  Si  Si784  1  0.197875  0.975307  0.411858  1
  Si  Si785  1  0.197883  0.524621  0.411855  1
  Si  Si786  1  0.802168  0.524585  0.411853  1
  Si  Si787  1  0.810074  0.872213  0.338108  1
  Si  Si788  1  0.189929  0.872257  0.338095  1
  Si  Si789  1  0.189981  0.627704  0.338093  1
  Si  Si790  1  0.810051  0.627723  0.338096  1
  Si  Si791  1  0.793014  0.940050  0.294487  1
  Si  Si792  1  0.206532  0.939841  0.294471  1
  Si  Si793  1  0.206607  0.560135  0.294473  1
  Si  Si794  1  0.793066  0.560004  0.294485  1
  Si  Si795  1  0.689248  0.941046  0.437971  1
  Si  Si796  1  0.310808  0.941039  0.437971  1
  Si  Si797  1  0.310794  0.558879  0.437971  1
  Si  Si798  1  0.689231  0.558888  0.437965  1
  Si  Si799  1  0.691459  0.972165  0.267329  1
  Si  Si800  1  0.308764  0.972214  0.267366  1
  Si  Si801  1  0.308805  0.527758  0.267365  1
  Si  Si802  1  0.691435  0.527778  0.267334  1
  Si  Si803  1  0.705204  0.942313  0.384157  1
  Si  Si804  1  0.294856  0.942241  0.384163  1
  Si  Si805  1  0.294870  0.557687  0.384161  1
  Si  Si806  1  0.705217  0.557611  0.384152  1
  Si  Si807  1  0.704625  0.826961  0.311917  1
  Si  Si808  1  0.295524  0.826933  0.311927  1
  Si  Si809  1  0.295564  0.673063  0.311926  1
  Si  Si810  1  0.704707  0.673118  0.311903  1
  Si  Si811  1  0.800351  0.826684  0.368476  1
  Si  Si812  1  0.199615  0.826693  0.368462  1
  Si  Si813  1  0.199625  0.673242  0.368462  1
  Si  Si814  1  0.800359  0.673236  0.368465  1
  Si  Si815  1  0.000000  0.945059  0.401059  1
  Si  Si816  1  0.000000  0.554866  0.401057  1
  Si  Si817  1  0.000000  0.561477  0.303821  1
  Si  Si818  1  0.000000  0.938499  0.303828  1
  Si  Si819  1  0.500197  0.558100  0.280736  1
  Si  Si820  1  0.500196  0.941933  0.280735  1
  Si  Si821  1  0.000000  0.827110  0.325729  1
  Si  Si822  1  0.000000  0.672817  0.325730  1
  Si  Si823  1  0.000000  0.826382  0.380844  1
  Si  Si824  1  -0.000000  0.673532  0.380839  1
  Si  Si825  1  0.000000  0.173673  0.303264  1
  Si  Si826  1  -0.000000  0.326344  0.303262  1
  Si  Si827  1  0.500034  0.128947  0.424230  1
  Si  Si828  1  0.310033  0.372248  0.267033  1
  Si  Si829  1  0.689895  0.372255  0.267033  1
  Si  Si830  1  0.689918  0.127698  0.267045  1
  Si  Si831  1  0.309982  0.127725  0.267034  1
  Si  Si832  1  0.293071  0.440020  0.310643  1
  Si  Si833  1  0.706589  0.439898  0.310656  1
  Si  Si834  1  0.706538  0.060155  0.310659  1
  Si  Si835  1  0.293000  0.059954  0.310642  1
  Si  Si836  1  0.191464  0.472176  0.337795  1
  Si  Si837  1  0.808775  0.472213  0.337767  1
  Si  Si838  1  0.808784  0.027712  0.337763  1
  Si  Si839  1  0.191419  0.027786  0.337796  1
  Si  Si840  1  0.202689  0.438159  0.368626  1
  Si  Si841  1  0.797443  0.438146  0.368602  1
  Si  Si842  1  0.797420  0.061758  0.368599  1
  Si  Si843  1  0.202670  0.061766  0.368628  1
  Si  Si844  1  0.196836  0.369390  0.412391  1
  Si  Si845  1  0.803248  0.369358  0.412385  1
  Si  Si846  1  0.803238  0.130567  0.412385  1
  Si  Si847  1  0.196825  0.130536  0.412392  1
  Si  Si848  1  0.298127  0.326532  0.385470  1
  Si  Si849  1  0.702033  0.326527  0.385454  1
  Si  Si850  1  0.702023  0.173377  0.385453  1
  Si  Si851  1  0.298117  0.173391  0.385471  1
  Si  Si852  1  0.312624  0.326509  0.437777  1
  Si  Si853  1  0.687453  0.326509  0.437773  1
  Si  Si854  1  0.687449  0.173411  0.437776  1
  Si  Si855  1  0.312617  0.173407  0.437778  1
  Si  Si856  1  0.204651  0.326917  0.293225  1
  Si  Si857  1  0.795542  0.326972  0.293199  1
  Si  Si858  1  0.795468  0.173102  0.293214  1
  Si  Si859  1  0.204613  0.173077  0.293227  1
  Si  Si860  1  0.499819  0.061463  0.301306  1
  Si  Si861  1  0.499874  0.438531  0.301298  1
  Si  Si862  1  0.000000  0.058066  0.324392  1
  Si  Si863  1  0.000000  0.441942  0.324392  1
  Si  Si864  1  0.000000  0.436538  0.380207  1
  Si  Si865  1  0.000000  0.063379  0.380206  1
  Si  Si866  1  0.000000  0.327085  0.402534  1
  Si  Si867  1  0.000000  0.172832  0.402534  1
  Si  Si868  1  0.499934  0.327119  0.279402  1
  Si  Si869  1  0.499905  0.172823  0.279402  1
  Si  Si870  1  0.500091  0.371161  0.392378  1
  Si  Si871  1  0.500079  0.128761  0.392380  1
  Si  Si872  1  0.500037  0.370974  0.424228  1
  Si  Si873  1  0.000000  0.525639  0.100248  1
  Si  Si874  1  0.000000  0.974327  0.100250  1
  Si  Si875  1  0.000000  0.525439  0.132231  1
  Si  Si876  1  -0.000000  0.974538  0.132232  1
  Si  Si877  1  0.000000  0.628966  0.180902  1
  Si  Si878  1  0.302065  0.975330  0.120187  1
  Si  Si879  1  0.697773  0.975356  0.120190  1
  Si  Si880  1  0.697807  0.524634  0.120181  1
  Si  Si881  1  0.302092  0.524617  0.120191  1
  Si  Si882  1  0.189160  0.941062  0.146304  1
  Si  Si883  1  0.810728  0.941074  0.146300  1
  Si  Si884  1  0.810720  0.558913  0.146296  1
  Si  Si885  1  0.189159  0.558905  0.146303  1
  Si  Si886  1  0.702567  0.938171  0.236497  1
  Si  Si887  1  0.297321  0.938180  0.236531  1
  Si  Si888  1  0.297331  0.561787  0.236529  1
  Si  Si889  1  0.702581  0.561773  0.236501  1
  Si  Si890  1  0.696685  0.869419  0.192735  1
  Si  Si891  1  0.303100  0.869389  0.192749  1
  Si  Si892  1  0.303112  0.630583  0.192749  1
  Si  Si893  1  0.696702  0.630549  0.192735  1
  Si  Si894  1  0.797988  0.826540  0.219653  1
  Si  Si895  1  0.201890  0.826563  0.219680  1
  Si  Si896  1  0.201907  0.673412  0.219680  1
  Si  Si897  1  0.798002  0.673400  0.219656  1
  Si  Si898  1  0.812501  0.826539  0.167353  1
  Si  Si899  1  0.187322  0.826533  0.167358  1
  Si  Si900  1  0.187336  0.673433  0.167358  1
  Si  Si901  1  0.812509  0.673436  0.167352  1
  Si  Si902  1  0.205131  0.942284  0.092487  1
  Si  Si903  1  0.794783  0.942292  0.092498  1
  Si  Si904  1  0.794742  0.557674  0.092480  1
  Si  Si905  1  0.205091  0.557665  0.092497  1
  Si  Si906  1  0.300274  0.826682  0.076791  1
  Si  Si907  1  0.699534  0.826728  0.076806  1
  Si  Si908  1  0.699576  0.673278  0.076787  1
  Si  Si909  1  0.300318  0.673232  0.076802  1
  Si  Si910  1  0.499923  0.945073  0.109391  1
  Si  Si911  1  0.499937  0.554883  0.109388  1
  Si  Si912  1  0.499902  0.936557  0.224922  1
  Si  Si913  1  0.499923  0.563399  0.224924  1
  Si  Si914  1  0.499913  0.827105  0.202594  1
  Si  Si915  1  0.499928  0.672851  0.202595  1
  Si  Si916  1  0.499883  0.826403  0.089174  1
  Si  Si917  1  0.499967  0.673553  0.089171  1
  Si  Si918  1  0.000000  0.871196  0.212753  1
  Si  Si919  1  -0.000000  0.628776  0.212752  1
  Si  Si920  1  0.000000  0.871010  0.180902  1
  Si  Si921  1  0.000000  0.025649  0.213215  1
  Si  Si922  1  0.000000  0.474322  0.213212  1
  Si  Si923  1  0.000000  0.025448  0.181232  1
  Si  Si924  1  -0.000000  0.474527  0.181229  1
  Si  Si925  1  0.000000  0.128976  0.132560  1
  Si  Si926  1  0.302040  0.475358  0.193279  1
  Si  Si927  1  0.697748  0.475318  0.193270  1
  Si  Si928  1  0.697759  0.024651  0.193274  1
  Si  Si929  1  0.302046  0.024616  0.193280  1
  Si  Si930  1  0.189126  0.441061  0.167165  1
  Si  Si931  1  0.810686  0.441065  0.167156  1
  Si  Si932  1  0.810712  0.058917  0.167163  1
  Si  Si933  1  0.189150  0.058910  0.167164  1
  Si  Si934  1  0.702521  0.438198  0.076934  1
  Si  Si935  1  0.297274  0.438155  0.076955  1
  Si  Si936  1  0.297341  0.061763  0.076940  1
  Si  Si937  1  0.702591  0.061794  0.076955  1
  Si  Si938  1  0.696738  0.369408  0.120713  1
  Si  Si939  1  0.303151  0.369387  0.120724  1
  Si  Si940  1  0.303131  0.130556  0.120718  1
  Si  Si941  1  0.696718  0.130587  0.120721  1
  Si  Si942  1  0.797961  0.326583  0.093782  1
  Si  Si943  1  0.201865  0.326526  0.093802  1
  Si  Si944  1  0.201906  0.173380  0.093789  1
  Si  Si945  1  0.798000  0.173438  0.093798  1
  Si  Si946  1  0.812517  0.326537  0.146102  1
  Si  Si947  1  0.187348  0.326533  0.146109  1
  Si  Si948  1  0.187353  0.173434  0.146108  1
  Si  Si949  1  0.812521  0.173438  0.146107  1
  Si  Si950  1  0.205092  0.442325  0.220979  1
  Si  Si951  1  0.794745  0.442251  0.220962  1
  Si  Si952  1  0.794745  0.057717  0.220968  1
  Si  Si953  1  0.205096  0.057646  0.220980  1
  Si  Si954  1  0.300256  0.326712  0.236666  1
  Si  Si955  1  0.699517  0.326703  0.236665  1
  Si  Si956  1  0.699509  0.173252  0.236676  1
  Si  Si957  1  0.300250  0.173263  0.236667  1
  Si  Si958  1  0.499900  0.445072  0.204072  1
  Si  Si959  1  0.499903  0.054896  0.204074  1
  Si  Si960  1  0.499924  0.436560  0.088536  1
  Si  Si961  1  0.499944  0.063396  0.088539  1
  Si  Si962  1  0.499936  0.327109  0.110865  1
  Si  Si963  1  0.499921  0.172855  0.110865  1
  Si  Si964  1  0.499887  0.326402  0.224289  1
  Si  Si965  1  0.499895  0.173552  0.224295  1
  Si  Si966  1  0.000000  0.371186  0.100709  1
  Si  Si967  1  -0.000000  0.128781  0.100709  1
  Si  Si968  1  0.000000  0.371001  0.132560  1
  Si  Si969  1  0.000000  0.525639  0.683588  1
  Si  Si970  1  0.000000  0.974327  0.683590  1
  Si  Si971  1  0.000000  0.525439  0.715570  1
  Si  Si972  1  0.000000  0.974538  0.715572  1
  Si  Si973  1  0.000000  0.628966  0.764241  1
  Si  Si974  1  0.302065  0.975330  0.703527  1
  Si  Si975  1  0.697773  0.975356  0.703529  1
  Si  Si976  1  0.697807  0.524634  0.703520  1
  Si  Si977  1  0.302092  0.524617  0.703530  1
  Si  Si978  1  0.189160  0.941062  0.729643  1
  Si  Si979  1  0.810728  0.941074  0.729640  1
  Si  Si980  1  0.810720  0.558913  0.729636  1
  Si  Si981  1  0.189159  0.558905  0.729642  1
  Si  Si982  1  0.702567  0.938171  0.819836  1
  Si  Si983  1  0.297321  0.938180  0.819870  1
  Si  Si984  1  0.297331  0.561787  0.819868  1
  Si  Si985  1  0.702581  0.561773  0.819841  1
  Si  Si986  1  0.696685  0.869419  0.776074  1
  Si  Si987  1  0.303100  0.869389  0.776089  1
  Si  Si988  1  0.303112  0.630583  0.776088  1
  Si  Si989  1  0.696702  0.630549  0.776075  1
  Si  Si990  1  0.797988  0.826540  0.802993  1
  Si  Si991  1  0.201890  0.826563  0.803020  1
  Si  Si992  1  0.201907  0.673412  0.803019  1
  Si  Si993  1  0.798002  0.673400  0.802996  1
  Si  Si994  1  0.812501  0.826539  0.750692  1
  Si  Si995  1  0.187322  0.826533  0.750698  1
  Si  Si996  1  0.187336  0.673433  0.750697  1
  Si  Si997  1  0.812509  0.673436  0.750692  1
  Si  Si998  1  0.205131  0.942284  0.675826  1
  Si  Si999  1  0.794783  0.942292  0.675838  1
  Si  Si1000  1  0.794742  0.557674  0.675819  1
  Si  Si1001  1  0.205091  0.557665  0.675837  1
  Si  Si1002  1  0.300274  0.826682  0.660130  1
  Si  Si1003  1  0.699534  0.826728  0.660145  1
  Si  Si1004  1  0.699576  0.673278  0.660126  1
  Si  Si1005  1  0.300318  0.673232  0.660142  1
  Si  Si1006  1  0.499923  0.945073  0.692731  1
  Si  Si1007  1  0.499937  0.554883  0.692728  1
  Si  Si1008  1  0.499902  0.936557  0.808262  1
  Si  Si1009  1  0.499923  0.563399  0.808263  1
  Si  Si1010  1  0.499913  0.827105  0.785934  1
  Si  Si1011  1  0.499928  0.672851  0.785935  1
  Si  Si1012  1  0.499883  0.826403  0.672514  1
  Si  Si1013  1  0.499967  0.673553  0.672511  1
  Si  Si1014  1  0.000000  0.871196  0.796093  1
  Si  Si1015  1  0.000000  0.628776  0.796091  1
  Si  Si1016  1  0.000000  0.871010  0.764242  1
  Si  Si1017  1  0.000000  0.025649  0.796555  1
  Si  Si1018  1  0.000000  0.474322  0.796552  1
  Si  Si1019  1  0.000000  0.025448  0.764572  1
  Si  Si1020  1  0.000000  0.474527  0.764569  1
  Si  Si1021  1  0.000000  0.128976  0.715900  1
  Si  Si1022  1  0.302040  0.475358  0.776618  1
  Si  Si1023  1  0.697748  0.475318  0.776609  1
  Si  Si1024  1  0.697759  0.024651  0.776614  1
  Si  Si1025  1  0.302046  0.024616  0.776620  1
  Si  Si1026  1  0.189126  0.441061  0.750504  1
  Si  Si1027  1  0.810686  0.441065  0.750496  1
  Si  Si1028  1  0.810712  0.058917  0.750502  1
  Si  Si1029  1  0.189150  0.058910  0.750503  1
  Si  Si1030  1  0.702521  0.438198  0.660273  1
  Si  Si1031  1  0.297274  0.438155  0.660295  1
  Si  Si1032  1  0.297341  0.061763  0.660280  1
  Si  Si1033  1  0.702591  0.061794  0.660295  1
  Si  Si1034  1  0.696738  0.369408  0.704052  1
  Si  Si1035  1  0.303151  0.369387  0.704063  1
  Si  Si1036  1  0.303131  0.130556  0.704058  1
  Si  Si1037  1  0.696718  0.130587  0.704060  1
  Si  Si1038  1  0.797961  0.326583  0.677122  1
  Si  Si1039  1  0.201865  0.326526  0.677142  1
  Si  Si1040  1  0.201906  0.173380  0.677128  1
  Si  Si1041  1  0.798000  0.173438  0.677137  1
  Si  Si1042  1  0.812517  0.326537  0.729441  1
  Si  Si1043  1  0.187348  0.326533  0.729449  1
  Si  Si1044  1  0.187353  0.173434  0.729447  1
  Si  Si1045  1  0.812521  0.173438  0.729447  1
  Si  Si1046  1  0.205092  0.442325  0.804319  1
  Si  Si1047  1  0.794745  0.442251  0.804302  1
  Si  Si1048  1  0.794745  0.057717  0.804307  1
  Si  Si1049  1  0.205096  0.057646  0.804320  1
  Si  Si1050  1  0.300256  0.326712  0.820005  1
  Si  Si1051  1  0.699517  0.326703  0.820004  1
  Si  Si1052  1  0.699509  0.173252  0.820016  1
  Si  Si1053  1  0.300250  0.173263  0.820007  1
  Si  Si1054  1  0.499900  0.445072  0.787412  1
  Si  Si1055  1  0.499903  0.054896  0.787414  1
  Si  Si1056  1  0.499924  0.436560  0.671876  1
  Si  Si1057  1  0.499944  0.063396  0.671879  1
  Si  Si1058  1  0.499936  0.327109  0.694204  1
  Si  Si1059  1  0.499921  0.172855  0.694205  1
  Si  Si1060  1  0.499887  0.326402  0.807629  1
  Si  Si1061  1  0.499895  0.173552  0.807635  1
  Si  Si1062  1  0.000000  0.371186  0.684048  1
  Si  Si1063  1  0.000000  0.128781  0.684049  1
  Si  Si1064  1  0.000000  0.371001  0.715899  1
  Si  Si1065  1  0.000000  0.826326  0.593544  1
  Si  Si1066  1  0.499999  0.628944  0.472570  1
  Si  Si1067  1  0.000000  0.673652  0.593540  1
  Si  Si1068  1  0.309971  0.872137  0.629757  1
  Si  Si1069  1  0.689852  0.872349  0.629783  1
  Si  Si1070  1  0.689846  0.627834  0.629752  1
  Si  Si1071  1  0.309947  0.627603  0.629780  1
  Si  Si1072  1  0.292983  0.939727  0.586159  1
  Si  Si1073  1  0.706513  0.940140  0.586148  1
  Si  Si1074  1  0.706846  0.560251  0.586152  1
  Si  Si1075  1  0.293311  0.559833  0.586146  1
  Si  Si1076  1  0.191300  0.972081  0.559015  1
  Si  Si1077  1  0.808635  0.972289  0.559029  1
  Si  Si1078  1  0.808549  0.527872  0.559011  1
  Si  Si1079  1  0.191199  0.527646  0.559026  1
  Si  Si1080  1  0.202640  0.938130  0.528180  1
  Si  Si1081  1  0.797395  0.938164  0.528196  1
  Si  Si1082  1  0.797317  0.561778  0.528174  1
  Si  Si1083  1  0.202564  0.561740  0.528194  1
  Si  Si1084  1  0.196776  0.869366  0.484410  1
  Si  Si1085  1  0.803189  0.869383  0.484415  1
  Si  Si1086  1  0.803199  0.630557  0.484407  1
  Si  Si1087  1  0.196786  0.630525  0.484414  1
  Si  Si1088  1  0.298050  0.826501  0.511333  1
  Si  Si1089  1  0.701955  0.826557  0.511345  1
  Si  Si1090  1  0.701907  0.673412  0.511328  1
  Si  Si1091  1  0.298001  0.673354  0.511344  1
  Si  Si1092  1  0.312587  0.826507  0.459025  1
  Si  Si1093  1  0.687417  0.826513  0.459026  1
  Si  Si1094  1  0.687407  0.673413  0.459020  1
  Si  Si1095  1  0.312578  0.673406  0.459026  1
  Si  Si1096  1  0.204791  0.826518  0.603562  1
  Si  Si1097  1  0.795664  0.827309  0.603619  1
  Si  Si1098  1  0.795024  0.673455  0.603557  1
  Si  Si1099  1  0.204153  0.672664  0.603614  1
  Si  Si1100  1  0.500043  0.561464  0.595494  1
  Si  Si1101  1  0.499789  0.938521  0.595502  1
  Si  Si1102  1  0.000000  0.558067  0.572406  1
  Si  Si1103  1  0.000000  0.941918  0.572412  1
  Si  Si1104  1  0.000000  0.936527  0.516595  1
  Si  Si1105  1  0.000000  0.563371  0.516591  1
  Si  Si1106  1  0.000000  0.827081  0.494266  1
  Si  Si1107  1  0.000000  0.672827  0.494264  1
  Si  Si1108  1  0.499958  0.827127  0.617401  1
  Si  Si1109  1  0.499845  0.672833  0.617399  1
  Si  Si1110  1  0.500001  0.871158  0.504422  1
  Si  Si1111  1  0.499953  0.628752  0.504421  1
  Si  Si1112  1  0.500003  0.870976  0.472571  1
  Si  Si1113  1  0.500151  0.173655  0.594931  1
  Si  Si1114  1  0.499677  0.326329  0.594928  1
  Si  Si1115  1  0.500010  0.025610  0.504884  1
  Si  Si1116  1  0.499942  0.474298  0.504881  1
  Si  Si1117  1  0.500016  0.025415  0.472902  1
  Si  Si1118  1  0.500006  0.474506  0.472898  1
  Si  Si1119  1  0.000000  0.173526  0.515962  1
  Si  Si1120  1  0.802141  0.475326  0.484940  1
  Si  Si1121  1  0.197848  0.475299  0.484947  1
  Si  Si1122  1  0.197833  0.024596  0.484944  1
  Si  Si1123  1  0.802120  0.024608  0.484950  1
  Si  Si1124  1  0.809969  0.372355  0.558689  1
  Si  Si1125  1  0.189854  0.372127  0.558715  1
  Si  Si1126  1  0.189879  0.127596  0.558693  1
  Si  Si1127  1  0.809973  0.127810  0.558720  1
  Si  Si1128  1  0.793317  0.440143  0.602322  1
  Si  Si1129  1  0.206845  0.439725  0.602316  1
  Si  Si1130  1  0.206516  0.059839  0.602328  1
  Si  Si1131  1  0.792982  0.060250  0.602318  1
  Si  Si1132  1  0.689222  0.441045  0.458827  1
  Si  Si1133  1  0.310781  0.441034  0.458832  1
  Si  Si1134  1  0.310794  0.058881  0.458834  1
  Si  Si1135  1  0.689233  0.058889  0.458833  1
  Si  Si1136  1  0.691194  0.472316  0.629441  1
  Si  Si1137  1  0.308530  0.472086  0.629459  1
  Si  Si1138  1  0.308630  0.027657  0.629447  1
  Si  Si1139  1  0.691279  0.027864  0.629459  1
  Si  Si1140  1  0.705125  0.442270  0.512633  1
  Si  Si1141  1  0.294777  0.442259  0.512648  1
  Si  Si1142  1  0.294826  0.057639  0.512639  1
  Si  Si1143  1  0.705176  0.057643  0.512651  1
  Si  Si1144  1  0.704159  0.327310  0.584854  1
  Si  Si1145  1  0.295031  0.326519  0.584911  1
  Si  Si1146  1  0.295668  0.172665  0.584857  1
  Si  Si1147  1  0.704798  0.173455  0.584914  1
  Si  Si1148  1  0.800350  0.326706  0.528328  1
  Si  Si1149  1  0.199611  0.326660  0.528343  1
  Si  Si1150  1  0.199574  0.173210  0.528330  1
  Si  Si1151  1  0.800308  0.173256  0.528346  1
  Si  Si1152  1  0.000000  0.445042  0.495741  1
  Si  Si1153  1  0.000000  0.054858  0.495745  1
  Si  Si1154  1  0.000000  0.061471  0.592978  1
  Si  Si1155  1  0.000000  0.438510  0.592971  1
  Si  Si1156  1  0.499994  0.058077  0.616066  1
  Si  Si1157  1  0.499819  0.441916  0.616062  1
  Si  Si1158  1  -0.000000  0.327123  0.571070  1
  Si  Si1159  1  0.000000  0.172827  0.571071  1
  Si  Si1160  1  -0.000000  0.326376  0.515959  1
  H  H1161  1  0.286644  0.845379  0.051909  1
  H  H1162  1  0.713094  0.845545  0.051931  1
  H  H1163  1  0.713182  0.654599  0.051904  1
  H  H1164  1  0.286738  0.654438  0.051926  1
  H  H1165  1  0.714494  0.444895  0.051597  1
  H  H1166  1  0.285150  0.444761  0.051619  1
  H  H1167  1  0.285334  0.055066  0.051604  1
  H  H1168  1  0.714699  0.055172  0.051619  1
  H  H1169  1  0.714769  0.944818  0.845170  1
  H  H1170  1  0.285432  0.944820  0.845210  1
  H  H1171  1  0.285434  0.555136  0.845208  1
  H  H1172  1  0.714803  0.555102  0.845174  1
  H  H1173  1  0.286653  0.345486  0.844884  1
  H  H1174  1  0.713100  0.345463  0.844882  1
  H  H1175  1  0.713087  0.154554  0.844897  1
  H  H1176  1  0.286622  0.154503  0.844885  1
