# generated using pymatgen
data_Si35H2O71
_symmetry_space_group_name_H-M   'P 1'
_cell_length_a   11.39954126
_cell_length_b   25.27156065
_cell_length_c   79.26608355
_cell_angle_alpha   90.00000000
_cell_angle_beta   90.00000000
_cell_angle_gamma   90.00000000
_symmetry_Int_Tables_number   1
_chemical_formula_structural   Si35H2O71
_chemical_formula_sum   'Si280 H16 O568'
_cell_volume   22835.3061334
_cell_formula_units_Z   8
loop_
 _symmetry_equiv_pos_site_id
 _symmetry_equiv_pos_as_xyz
  1  'x, y, z'
loop_
 _atom_site_type_symbol
 _atom_site_label
 _atom_site_symmetry_multiplicity
 _atom_site_fract_x
 _atom_site_fract_y
 _atom_site_fract_z
 _atom_site_occupancy
  O  O1  1  0.692572  0.800467  0.268301  1
  O  O2  1  0.307339  0.699481  0.268303  1
  O  O3  1  0.692561  0.699471  0.268301  1
  O  O4  1  0.307337  0.800478  0.268302  1
  O  O5  1  0.887944  0.836003  0.276786  1
  O  O6  1  0.111947  0.835998  0.276786  1
  O  O7  1  0.717458  0.899576  0.268297  1
  O  O8  1  0.282406  0.899584  0.268300  1
  O  O9  1  0.826249  0.838588  0.246007  1
  O  O10  1  0.173652  0.838591  0.246007  1
  O  O11  1  0.792129  0.898827  0.188737  1
  O  O12  1  0.207780  0.898829  0.188737  1
  O  O13  1  0.811307  0.800792  0.183770  1
  O  O14  1  0.188594  0.699167  0.183774  1
  O  O15  1  0.811302  0.699166  0.183770  1
  O  O16  1  0.188596  0.800793  0.183770  1
  O  O17  1  0.615368  0.834374  0.192800  1
  O  O18  1  0.384539  0.834376  0.192799  1
  O  O19  1  0.793426  0.832032  0.213619  1
  O  O20  1  0.206476  0.667907  0.213620  1
  O  O21  1  0.793440  0.667910  0.213617  1
  O  O22  1  0.206482  0.832033  0.213618  1
  O  O23  1  0.845512  0.749971  0.230783  1
  O  O24  1  0.154398  0.749973  0.230783  1
  O  O25  1  0.000000  0.819080  0.226498  1
  O  O26  1  0.000000  0.680863  0.226500  1
  O  O27  1  0.499933  0.928336  0.275213  1
  O  O28  1  0.657929  -0.000000  0.274973  1
  O  O29  1  0.845567  0.929778  0.158593  1
  O  O30  1  0.000000  0.930209  0.180975  1
  O  O31  1  0.499953  0.749977  0.273022  1
  O  O32  1  0.656942  0.749969  0.295504  1
  O  O33  1  0.342964  0.749983  0.295504  1
  O  O34  1  0.000000  0.749978  0.178866  1
  O  O35  1  0.499960  0.819674  0.165383  1
  O  O36  1  0.499944  0.680266  0.165383  1
  O  O37  1  0.000000  0.749975  0.281654  1
  O  O38  1  0.499947  0.749973  0.187840  1
  O  O39  1  0.154343  0.929781  0.158593  1
  O  O40  1  0.341948  0.000000  0.274975  1
  O  O41  1  0.611942  0.336006  0.179504  1
  O  O42  1  0.111958  0.663952  0.276787  1
  O  O43  1  0.887953  0.663947  0.276783  1
  O  O44  1  0.387939  0.336003  0.179503  1
  O  O45  1  0.782420  0.399585  0.187990  1
  O  O46  1  0.282436  0.600373  0.268300  1
  O  O47  1  0.717482  0.600364  0.268299  1
  O  O48  1  0.217473  0.399587  0.187991  1
  O  O49  1  0.673665  0.338592  0.210282  1
  O  O50  1  0.173663  0.661359  0.246009  1
  O  O51  1  0.826235  0.661354  0.246006  1
  O  O52  1  0.326244  0.338594  0.210282  1
  O  O53  1  0.707769  0.398819  0.267554  1
  O  O54  1  0.207767  0.601129  0.188733  1
  O  O55  1  0.792120  0.601129  0.188731  1
  O  O56  1  0.292116  0.398827  0.267555  1
  O  O57  1  0.884534  0.334373  0.263490  1
  O  O58  1  0.384532  0.665573  0.192800  1
  O  O59  1  0.615367  0.665576  0.192800  1
  O  O60  1  0.115365  0.334372  0.263489  1
  O  O61  1  0.000000  0.428342  0.181076  1
  O  O62  1  0.499960  0.571610  0.275214  1
  O  O63  1  0.154332  0.570172  0.158588  1
  O  O64  1  0.841954  0.499500  0.181314  1
  O  O65  1  0.341962  0.500455  0.274974  1
  O  O66  1  0.657943  0.500449  0.274973  1
  O  O67  1  0.157934  0.499502  0.181314  1
  O  O68  1  0.499946  0.430202  0.275317  1
  O  O69  1  0.000000  0.569751  0.180968  1
  O  O70  1  0.845557  0.570169  0.158586  1
  O  O71  1  0.654336  0.429773  0.297698  1
  O  O72  1  0.345561  0.429778  0.297699  1
  O  O73  1  0.807330  0.300478  0.187985  1
  O  O74  1  0.192563  0.199484  0.187989  1
  O  O75  1  0.807331  0.199481  0.187989  1
  O  O76  1  0.192554  0.300481  0.187988  1
  O  O77  1  0.387944  0.163955  0.179504  1
  O  O78  1  0.611949  0.163951  0.179506  1
  O  O79  1  0.217472  0.100376  0.187991  1
  O  O80  1  0.782428  0.100373  0.187991  1
  O  O81  1  0.326244  0.161363  0.210283  1
  O  O82  1  0.673659  0.161358  0.210284  1
  O  O83  1  0.292124  0.101127  0.267557  1
  O  O84  1  0.707767  0.101121  0.267555  1
  O  O85  1  0.688597  0.300783  0.272519  1
  O  O86  1  0.311297  0.199165  0.272519  1
  O  O87  1  0.688591  0.199157  0.272520  1
  O  O88  1  0.311309  0.300791  0.272518  1
  O  O89  1  0.115364  0.165574  0.263489  1
  O  O90  1  0.884531  0.165569  0.263491  1
  O  O91  1  0.706475  0.332033  0.242671  1
  O  O92  1  0.293431  0.167914  0.242672  1
  O  O93  1  0.706472  0.167915  0.242672  1
  O  O94  1  0.293429  0.332042  0.242671  1
  O  O95  1  0.654393  0.249976  0.225506  1
  O  O96  1  0.345506  0.249978  0.225507  1
  O  O97  1  0.499953  0.319086  0.229789  1
  O  O98  1  0.499950  0.180870  0.229791  1
  O  O99  1  -0.000000  0.071616  0.181076  1
  O  O100  1  0.841962  0.000000  0.181318  1
  O  O101  1  0.345564  0.070170  0.297701  1
  O  O102  1  0.499945  0.069744  0.275319  1
  O  O103  1  0.000000  0.249978  0.183267  1
  O  O104  1  0.842959  0.249966  0.160785  1
  O  O105  1  0.156938  0.249977  0.160786  1
  O  O106  1  0.499948  0.249973  0.277423  1
  O  O107  1  0.000000  0.319674  0.290906  1
  O  O108  1  0.000000  0.180267  0.290907  1
  O  O109  1  0.499951  0.249978  0.174636  1
  O  O110  1  0.000000  0.249972  0.268449  1
  O  O111  1  0.157945  0.000000  0.181318  1
  O  O112  1  0.654340  0.070163  0.297699  1
  O  O113  1  0.192566  0.800470  0.129120  1
  O  O114  1  0.807337  0.699471  0.129117  1
  O  O115  1  0.192577  0.699472  0.129117  1
  O  O116  1  0.807348  0.800467  0.129116  1
  O  O117  1  0.387957  0.835995  0.137602  1
  O  O118  1  0.611962  0.835990  0.137601  1
  O  O119  1  0.217480  0.899577  0.129118  1
  O  O120  1  0.782433  0.899575  0.129117  1
  O  O121  1  0.326233  0.838590  0.106824  1
  O  O122  1  0.673667  0.838591  0.106823  1
  O  O123  1  0.293422  0.832037  0.074436  1
  O  O124  1  0.706473  0.667910  0.074434  1
  O  O125  1  0.293418  0.667917  0.074433  1
  O  O126  1  0.706462  0.832036  0.074434  1
  O  O127  1  0.345504  0.749975  0.091600  1
  O  O128  1  0.654389  0.749975  0.091598  1
  O  O129  1  0.499945  0.819085  0.087317  1
  O  O130  1  0.499945  0.680868  0.087313  1
  O  O131  1  0.000000  0.928333  0.136032  1
  O  O132  1  0.157943  0.000000  0.135791  1
  O  O133  1  0.841963  0.000000  0.135791  1
  O  O134  1  0.000000  0.749965  0.133838  1
  O  O135  1  0.156943  0.749966  0.156320  1
  O  O136  1  0.842966  0.749975  0.156319  1
  O  O137  1  0.499950  0.749967  0.142469  1
  O  O138  1  0.611957  0.663943  0.137602  1
  O  O139  1  0.387954  0.663939  0.137601  1
  O  O140  1  0.782421  0.600363  0.129111  1
  O  O141  1  0.217473  0.600364  0.129112  1
  O  O142  1  0.673642  0.661360  0.106823  1
  O  O143  1  0.326247  0.661355  0.106822  1
  O  O144  1  0.207781  0.398820  0.128371  1
  O  O145  1  0.792129  0.398815  0.128370  1
  O  O146  1  0.384536  0.334368  0.124305  1
  O  O147  1  0.615368  0.334368  0.124306  1
  O  O148  1  0.000000  0.571606  0.136026  1
  O  O149  1  0.841957  0.500446  0.135786  1
  O  O150  1  0.157940  0.500449  0.135788  1
  O  O151  1  0.000000  0.430199  0.136133  1
  O  O152  1  0.845562  0.429778  0.158514  1
  O  O153  1  0.154335  0.429780  0.158515  1
  O  O154  1  0.792126  0.101116  0.128370  1
  O  O155  1  0.207773  0.101121  0.128370  1
  O  O156  1  0.188595  0.300784  0.133334  1
  O  O157  1  0.811314  0.199152  0.133333  1
  O  O158  1  0.188607  0.199158  0.133336  1
  O  O159  1  0.811308  0.300778  0.133334  1
  O  O160  1  0.615370  0.165569  0.124306  1
  O  O161  1  0.384541  0.165567  0.124307  1
  O  O162  1  0.206471  0.332035  0.103487  1
  O  O163  1  0.793429  0.167903  0.103486  1
  O  O164  1  0.206484  0.167914  0.103488  1
  O  O165  1  0.793424  0.332028  0.103486  1
  O  O166  1  0.000000  0.069741  0.136134  1
  O  O167  1  0.000000  0.249967  0.138239  1
  O  O168  1  0.499948  0.319677  0.151722  1
  O  O169  1  0.499962  0.180269  0.151723  1
  O  O170  1  0.499952  0.249969  0.129266  1
  O  O171  1  0.154340  0.070172  0.158515  1
  O  O172  1  0.845560  0.070169  0.158515  1
  O  O173  1  0.692572  0.800467  0.546670  1
  O  O174  1  0.307339  0.699481  0.546671  1
  O  O175  1  0.692561  0.699471  0.546670  1
  O  O176  1  0.307337  0.800478  0.546670  1
  O  O177  1  0.887944  0.836003  0.555155  1
  O  O178  1  0.111947  0.835998  0.555154  1
  O  O179  1  0.717458  0.899576  0.546666  1
  O  O180  1  0.282406  0.899584  0.546668  1
  O  O181  1  0.826249  0.838588  0.524376  1
  O  O182  1  0.173652  0.838591  0.524376  1
  O  O183  1  0.792129  0.898827  0.467106  1
  O  O184  1  0.207780  0.898829  0.467106  1
  O  O185  1  0.811307  0.800792  0.462138  1
  O  O186  1  0.188594  0.699167  0.462142  1
  O  O187  1  0.811302  0.699166  0.462139  1
  O  O188  1  0.188596  0.800793  0.462138  1
  O  O189  1  0.615368  0.834374  0.471168  1
  O  O190  1  0.384539  0.834376  0.471167  1
  O  O191  1  0.793426  0.832032  0.491987  1
  O  O192  1  0.206476  0.667907  0.491988  1
  O  O193  1  0.793440  0.667910  0.491985  1
  O  O194  1  0.206482  0.832033  0.491987  1
  O  O195  1  0.845512  0.749971  0.509151  1
  O  O196  1  0.154398  0.749973  0.509152  1
  O  O197  1  0.000000  0.819080  0.504867  1
  O  O198  1  -0.000000  0.680863  0.504869  1
  O  O199  1  0.499933  0.928336  0.553582  1
  O  O200  1  0.657929  0.000000  0.553341  1
  O  O201  1  0.845567  0.929778  0.436962  1
  O  O202  1  0.000000  0.930209  0.459343  1
  O  O203  1  0.499953  0.749977  0.551391  1
  O  O204  1  0.656942  0.749969  0.573872  1
  O  O205  1  0.342964  0.749983  0.573873  1
  O  O206  1  0.000000  0.749978  0.457235  1
  O  O207  1  0.499960  0.819674  0.443751  1
  O  O208  1  0.499944  0.680266  0.443752  1
  O  O209  1  0.000000  0.749975  0.560022  1
  O  O210  1  0.499947  0.749973  0.466209  1
  O  O211  1  0.154343  0.929781  0.436962  1
  O  O212  1  0.341948  0.000000  0.553344  1
  O  O213  1  0.611942  0.336006  0.457873  1
  O  O214  1  0.111958  0.663952  0.555155  1
  O  O215  1  0.887953  0.663947  0.555152  1
  O  O216  1  0.387939  0.336003  0.457872  1
  O  O217  1  0.782420  0.399585  0.466358  1
  O  O218  1  0.282436  0.600373  0.546669  1
  O  O219  1  0.717482  0.600364  0.546667  1
  O  O220  1  0.217473  0.399587  0.466359  1
  O  O221  1  0.673665  0.338592  0.488650  1
  O  O222  1  0.173663  0.661359  0.524377  1
  O  O223  1  0.826235  0.661354  0.524374  1
  O  O224  1  0.326244  0.338594  0.488650  1
  O  O225  1  0.707769  0.398819  0.545923  1
  O  O226  1  0.207767  0.601129  0.467101  1
  O  O227  1  0.792120  0.601129  0.467100  1
  O  O228  1  0.292116  0.398827  0.545923  1
  O  O229  1  0.884534  0.334373  0.541859  1
  O  O230  1  0.384532  0.665573  0.471169  1
  O  O231  1  0.615367  0.665576  0.471169  1
  O  O232  1  0.115365  0.334372  0.541858  1
  O  O233  1  0.000000  0.428342  0.459445  1
  O  O234  1  0.499960  0.571610  0.553583  1
  O  O235  1  0.154332  0.570172  0.436956  1
  O  O236  1  0.841954  0.499500  0.459682  1
  O  O237  1  0.341962  0.500455  0.553342  1
  O  O238  1  0.657943  0.500449  0.553342  1
  O  O239  1  0.157934  0.499502  0.459683  1
  O  O240  1  0.499946  0.430202  0.553686  1
  O  O241  1  0.000000  0.569751  0.459337  1
  O  O242  1  0.845557  0.570169  0.436955  1
  O  O243  1  0.654336  0.429773  0.576067  1
  O  O244  1  0.345561  0.429778  0.576068  1
  O  O245  1  0.807330  0.300478  0.466353  1
  O  O246  1  0.192563  0.199484  0.466358  1
  O  O247  1  0.807331  0.199481  0.466358  1
  O  O248  1  0.192554  0.300481  0.466356  1
  O  O249  1  0.387944  0.163955  0.457873  1
  O  O250  1  0.611949  0.163951  0.457875  1
  O  O251  1  0.217472  0.100376  0.466360  1
  O  O252  1  0.782428  0.100373  0.466360  1
  O  O253  1  0.326244  0.161363  0.488652  1
  O  O254  1  0.673659  0.161358  0.488652  1
  O  O255  1  0.292124  0.101127  0.545925  1
  O  O256  1  0.707767  0.101121  0.545923  1
  O  O257  1  0.688597  0.300783  0.550888  1
  O  O258  1  0.311297  0.199165  0.550888  1
  O  O259  1  0.688591  0.199157  0.550889  1
  O  O260  1  0.311309  0.300791  0.550886  1
  O  O261  1  0.115364  0.165574  0.541858  1
  O  O262  1  0.884531  0.165569  0.541860  1
  O  O263  1  0.706475  0.332033  0.521040  1
  O  O264  1  0.293431  0.167914  0.521041  1
  O  O265  1  0.706472  0.167915  0.521041  1
  O  O266  1  0.293429  0.332042  0.521039  1
  O  O267  1  0.654393  0.249976  0.503875  1
  O  O268  1  0.345506  0.249978  0.503876  1
  O  O269  1  0.499953  0.319086  0.508158  1
  O  O270  1  0.499950  0.180870  0.508160  1
  O  O271  1  0.000000  0.071616  0.459445  1
  O  O272  1  0.841962  0.000000  0.459686  1
  O  O273  1  0.345564  0.070170  0.576070  1
  O  O274  1  0.499945  0.069744  0.553688  1
  O  O275  1  0.000000  0.249978  0.461636  1
  O  O276  1  0.842959  0.249966  0.439153  1
  O  O277  1  0.156938  0.249977  0.439155  1
  O  O278  1  0.499948  0.249973  0.555792  1
  O  O279  1  0.000000  0.319674  0.569275  1
  O  O280  1  0.000000  0.180267  0.569275  1
  O  O281  1  0.499951  0.249978  0.453005  1
  O  O282  1  0.000000  0.249972  0.546818  1
  O  O283  1  0.157945  0.000000  0.459687  1
  O  O284  1  0.654340  0.070163  0.576068  1
  O  O285  1  0.192566  0.800470  0.407488  1
  O  O286  1  0.807337  0.699471  0.407486  1
  O  O287  1  0.192577  0.699472  0.407486  1
  O  O288  1  0.807348  0.800467  0.407485  1
  O  O289  1  0.387957  0.835995  0.415970  1
  O  O290  1  0.611962  0.835990  0.415969  1
  O  O291  1  0.217480  0.899577  0.407487  1
  O  O292  1  0.782433  0.899575  0.407486  1
  O  O293  1  0.326233  0.838590  0.385193  1
  O  O294  1  0.673667  0.838591  0.385191  1
  O  O295  1  0.292123  0.898821  0.327920  1
  O  O296  1  0.707777  0.898815  0.327917  1
  O  O297  1  0.311312  0.800785  0.322957  1
  O  O298  1  0.688595  0.699152  0.322955  1
  O  O299  1  0.311299  0.699159  0.322953  1
  O  O300  1  0.688597  0.800778  0.322955  1
  O  O301  1  0.115366  0.834371  0.331984  1
  O  O302  1  0.884533  0.834366  0.331985  1
  O  O303  1  0.293422  0.832037  0.352804  1
  O  O304  1  0.706473  0.667910  0.352803  1
  O  O305  1  0.293418  0.667917  0.352802  1
  O  O306  1  0.706462  0.832036  0.352802  1
  O  O307  1  0.345504  0.749975  0.369968  1
  O  O308  1  0.654389  0.749975  0.369967  1
  O  O309  1  0.499945  0.819085  0.365686  1
  O  O310  1  0.499945  0.680868  0.365682  1
  O  O311  1  0.000000  0.928333  0.414401  1
  O  O312  1  0.157943  0.000000  0.414160  1
  O  O313  1  0.841963  0.000000  0.414160  1
  O  O314  1  0.499949  0.930197  0.320156  1
  O  O315  1  -0.000000  0.749965  0.412206  1
  O  O316  1  0.156943  0.749966  0.434689  1
  O  O317  1  0.842966  0.749975  0.434687  1
  O  O318  1  0.499952  0.749967  0.318051  1
  O  O319  1  0.000000  0.819676  0.304568  1
  O  O320  1  0.000000  0.680268  0.304567  1
  O  O321  1  0.499950  0.749967  0.420838  1
  O  O322  1  0.000000  0.749969  0.327024  1
  O  O323  1  0.654328  0.929772  0.297773  1
  O  O324  1  0.345553  0.929778  0.297776  1
  O  O325  1  0.111950  0.335998  0.318689  1
  O  O326  1  0.611957  0.663943  0.415971  1
  O  O327  1  0.387954  0.663939  0.415969  1
  O  O328  1  0.887945  0.335990  0.318688  1
  O  O329  1  0.282426  0.399579  0.327175  1
  O  O330  1  0.782421  0.600363  0.407480  1
  O  O331  1  0.217473  0.600364  0.407481  1
  O  O332  1  0.717475  0.399572  0.327174  1
  O  O333  1  0.173654  0.338590  0.349467  1
  O  O334  1  0.673642  0.661360  0.385191  1
  O  O335  1  0.326247  0.661355  0.385190  1
  O  O336  1  0.826244  0.338583  0.349466  1
  O  O337  1  0.207781  0.398820  0.406740  1
  O  O338  1  0.707787  0.601117  0.327920  1
  O  O339  1  0.292143  0.601122  0.327920  1
  O  O340  1  0.792129  0.398815  0.406739  1
  O  O341  1  0.384536  0.334368  0.402673  1
  O  O342  1  0.884536  0.665571  0.331985  1
  O  O343  1  0.115366  0.665565  0.331981  1
  O  O344  1  0.615368  0.334368  0.402674  1
  O  O345  1  0.499953  0.428332  0.320260  1
  O  O346  1  0.000000  0.571606  0.414394  1
  O  O347  1  0.341968  0.499493  0.320501  1
  O  O348  1  0.841957  0.500446  0.414155  1
  O  O349  1  0.157940  0.500449  0.414156  1
  O  O350  1  0.657950  0.499488  0.320500  1
  O  O351  1  0.000000  0.430199  0.414502  1
  O  O352  1  0.499966  0.569739  0.320156  1
  O  O353  1  0.654353  0.570164  0.297775  1
  O  O354  1  0.345575  0.570169  0.297776  1
  O  O355  1  0.845562  0.429778  0.436882  1
  O  O356  1  0.154335  0.429780  0.436884  1
  O  O357  1  0.307333  0.300471  0.327173  1
  O  O358  1  0.692559  0.199467  0.327173  1
  O  O359  1  0.307329  0.199475  0.327171  1
  O  O360  1  0.692562  0.300464  0.327173  1
  O  O361  1  0.887945  0.163947  0.318687  1
  O  O362  1  0.111950  0.163940  0.318690  1
  O  O363  1  0.717488  0.100360  0.327174  1
  O  O364  1  0.282437  0.100366  0.327177  1
  O  O365  1  0.826257  0.161352  0.349466  1
  O  O366  1  0.173668  0.161356  0.349468  1
  O  O367  1  0.792126  0.101116  0.406739  1
  O  O368  1  0.207773  0.101121  0.406739  1
  O  O369  1  0.188595  0.300784  0.411703  1
  O  O370  1  0.811314  0.199152  0.411702  1
  O  O371  1  0.188607  0.199158  0.411705  1
  O  O372  1  0.811308  0.300778  0.411702  1
  O  O373  1  0.615370  0.165569  0.402674  1
  O  O374  1  0.384541  0.165567  0.402676  1
  O  O375  1  0.206471  0.332035  0.381856  1
  O  O376  1  0.793429  0.167903  0.381854  1
  O  O377  1  0.206484  0.167914  0.381857  1
  O  O378  1  0.793424  0.332028  0.381855  1
  O  O379  1  0.154396  0.249973  0.364691  1
  O  O380  1  0.845511  0.249966  0.364690  1
  O  O381  1  0.000000  0.319078  0.368975  1
  O  O382  1  -0.000000  0.180861  0.368975  1
  O  O383  1  0.499960  0.071606  0.320262  1
  O  O384  1  0.657945  0.000000  0.320500  1
  O  O385  1  0.341964  0.000000  0.320502  1
  O  O386  1  0.000000  0.069741  0.414503  1
  O  O387  1  0.499944  0.249969  0.322452  1
  O  O388  1  0.342957  0.249979  0.299970  1
  O  O389  1  0.656934  0.249970  0.299971  1
  O  O390  1  0.000000  0.249967  0.416607  1
  O  O391  1  0.499948  0.319677  0.430091  1
  O  O392  1  0.499962  0.180269  0.430092  1
  O  O393  1  0.000000  0.249969  0.313820  1
  O  O394  1  0.499952  0.249969  0.407634  1
  O  O395  1  0.154340  0.070172  0.436884  1
  O  O396  1  0.845560  0.070169  0.436884  1
  O  O397  1  0.792129  0.898827  0.745475  1
  O  O398  1  0.207780  0.898829  0.745475  1
  O  O399  1  0.811307  0.800792  0.740507  1
  O  O400  1  0.188594  0.699167  0.740511  1
  O  O401  1  0.811302  0.699166  0.740507  1
  O  O402  1  0.188596  0.800793  0.740507  1
  O  O403  1  0.615368  0.834374  0.749537  1
  O  O404  1  0.384539  0.834376  0.749536  1
  O  O405  1  0.793426  0.832032  0.770356  1
  O  O406  1  0.206476  0.667907  0.770357  1
  O  O407  1  0.793440  0.667910  0.770354  1
  O  O408  1  0.206482  0.832033  0.770356  1
  O  O409  1  0.845567  0.929778  0.715330  1
  O  O410  1  0.000000  0.930209  0.737712  1
  O  O411  1  0.000000  0.749978  0.735604  1
  O  O412  1  0.499960  0.819674  0.722120  1
  O  O413  1  0.499944  0.680266  0.722121  1
  O  O414  1  0.499947  0.749973  0.744577  1
  O  O415  1  0.154343  0.929781  0.715331  1
  O  O416  1  0.611942  0.336006  0.736241  1
  O  O417  1  0.387939  0.336003  0.736240  1
  O  O418  1  0.782420  0.399585  0.744727  1
  O  O419  1  0.217473  0.399587  0.744728  1
  O  O420  1  0.673665  0.338592  0.767019  1
  O  O421  1  0.326244  0.338594  0.767019  1
  O  O422  1  0.207767  0.601129  0.745470  1
  O  O423  1  0.792120  0.601129  0.745468  1
  O  O424  1  0.384532  0.665573  0.749538  1
  O  O425  1  0.615367  0.665576  0.749537  1
  O  O426  1  -0.000000  0.428342  0.737813  1
  O  O427  1  0.154332  0.570172  0.715325  1
  O  O428  1  0.841954  0.499500  0.738051  1
  O  O429  1  0.157934  0.499502  0.738052  1
  O  O430  1  -0.000000  0.569751  0.737705  1
  O  O431  1  0.845557  0.570169  0.715324  1
  O  O432  1  0.807330  0.300478  0.744722  1
  O  O433  1  0.192563  0.199484  0.744726  1
  O  O434  1  0.807331  0.199481  0.744727  1
  O  O435  1  0.192554  0.300481  0.744725  1
  O  O436  1  0.387944  0.163955  0.736242  1
  O  O437  1  0.611949  0.163951  0.736243  1
  O  O438  1  0.217472  0.100376  0.744728  1
  O  O439  1  0.782428  0.100373  0.744728  1
  O  O440  1  0.326244  0.161363  0.767020  1
  O  O441  1  0.673659  0.161358  0.767021  1
  O  O442  1  0.706475  0.332033  0.799408  1
  O  O443  1  0.293431  0.167914  0.799409  1
  O  O444  1  0.706472  0.167915  0.799410  1
  O  O445  1  0.293429  0.332042  0.799408  1
  O  O446  1  0.654393  0.249976  0.782243  1
  O  O447  1  0.345506  0.249978  0.782244  1
  O  O448  1  0.499953  0.319086  0.786527  1
  O  O449  1  0.499950  0.180870  0.786529  1
  O  O450  1  0.000000  0.071616  0.737814  1
  O  O451  1  0.841962  0.000000  0.738055  1
  O  O452  1  0.000000  0.249978  0.740005  1
  O  O453  1  0.842959  0.249966  0.717522  1
  O  O454  1  0.156938  0.249977  0.717523  1
  O  O455  1  0.499951  0.249978  0.731374  1
  O  O456  1  0.157945  0.000000  0.738055  1
  O  O457  1  0.192566  0.800470  0.685857  1
  O  O458  1  0.807337  0.699471  0.685854  1
  O  O459  1  0.192577  0.699472  0.685854  1
  O  O460  1  0.807348  0.800467  0.685853  1
  O  O461  1  0.387957  0.835995  0.694339  1
  O  O462  1  0.611962  0.835990  0.694338  1
  O  O463  1  0.217480  0.899577  0.685856  1
  O  O464  1  0.782433  0.899575  0.685855  1
  O  O465  1  0.326233  0.838590  0.663562  1
  O  O466  1  0.673667  0.838591  0.663560  1
  O  O467  1  0.292123  0.898821  0.606289  1
  O  O468  1  0.707777  0.898815  0.606286  1
  O  O469  1  0.311312  0.800785  0.601326  1
  O  O470  1  0.688595  0.699152  0.601323  1
  O  O471  1  0.311299  0.699159  0.601322  1
  O  O472  1  0.688597  0.800778  0.601324  1
  O  O473  1  0.115366  0.834371  0.610353  1
  O  O474  1  0.884533  0.834366  0.610354  1
  O  O475  1  0.293422  0.832037  0.631173  1
  O  O476  1  0.706473  0.667910  0.631172  1
  O  O477  1  0.293418  0.667917  0.631170  1
  O  O478  1  0.706462  0.832036  0.631171  1
  O  O479  1  0.345504  0.749975  0.648337  1
  O  O480  1  0.654389  0.749975  0.648336  1
  O  O481  1  0.499945  0.819085  0.644054  1
  O  O482  1  0.499945  0.680868  0.644050  1
  O  O483  1  0.000000  0.928333  0.692770  1
  O  O484  1  0.157943  0.000000  0.692528  1
  O  O485  1  0.841963  0.000000  0.692528  1
  O  O486  1  0.499949  0.930197  0.598524  1
  O  O487  1  0.000000  0.749965  0.690575  1
  O  O488  1  0.156943  0.749966  0.713058  1
  O  O489  1  0.842966  0.749975  0.713056  1
  O  O490  1  0.499952  0.749967  0.596419  1
  O  O491  1  0.000000  0.819676  0.582936  1
  O  O492  1  0.000000  0.680268  0.582935  1
  O  O493  1  0.499950  0.749967  0.699207  1
  O  O494  1  0.000000  0.749969  0.605393  1
  O  O495  1  0.654328  0.929772  0.576142  1
  O  O496  1  0.345553  0.929778  0.576144  1
  O  O497  1  0.111950  0.335998  0.597057  1
  O  O498  1  0.611957  0.663943  0.694340  1
  O  O499  1  0.387954  0.663939  0.694338  1
  O  O500  1  0.887945  0.335990  0.597056  1
  O  O501  1  0.282426  0.399579  0.605543  1
  O  O502  1  0.782421  0.600363  0.685848  1
  O  O503  1  0.217473  0.600364  0.685849  1
  O  O504  1  0.717475  0.399572  0.605542  1
  O  O505  1  0.173654  0.338590  0.627836  1
  O  O506  1  0.673642  0.661360  0.663560  1
  O  O507  1  0.326247  0.661355  0.663559  1
  O  O508  1  0.826244  0.338583  0.627835  1
  O  O509  1  0.207781  0.398820  0.685108  1
  O  O510  1  0.707787  0.601117  0.606289  1
  O  O511  1  0.292143  0.601122  0.606288  1
  O  O512  1  0.792129  0.398815  0.685107  1
  O  O513  1  0.384536  0.334368  0.681042  1
  O  O514  1  0.884536  0.665571  0.610353  1
  O  O515  1  0.115366  0.665565  0.610350  1
  O  O516  1  0.615368  0.334368  0.681043  1
  O  O517  1  0.499953  0.428332  0.598629  1
  O  O518  1  -0.000000  0.571606  0.692763  1
  O  O519  1  0.341968  0.499493  0.598869  1
  O  O520  1  0.841957  0.500446  0.692524  1
  O  O521  1  0.157940  0.500449  0.692525  1
  O  O522  1  0.657950  0.499488  0.598869  1
  O  O523  1  0.000000  0.430199  0.692870  1
  O  O524  1  0.499966  0.569739  0.598525  1
  O  O525  1  0.654353  0.570164  0.576143  1
  O  O526  1  0.345575  0.570169  0.576144  1
  O  O527  1  0.845562  0.429778  0.715251  1
  O  O528  1  0.154335  0.429780  0.715252  1
  O  O529  1  0.307333  0.300471  0.605542  1
  O  O530  1  0.692559  0.199467  0.605541  1
  O  O531  1  0.307329  0.199475  0.605540  1
  O  O532  1  0.692562  0.300464  0.605542  1
  O  O533  1  0.887945  0.163947  0.597056  1
  O  O534  1  0.111950  0.163940  0.597058  1
  O  O535  1  0.717488  0.100360  0.605543  1
  O  O536  1  0.282437  0.100366  0.605546  1
  O  O537  1  0.826257  0.161352  0.627834  1
  O  O538  1  0.173668  0.161356  0.627836  1
  O  O539  1  0.792126  0.101116  0.685107  1
  O  O540  1  0.207773  0.101121  0.685108  1
  O  O541  1  0.188595  0.300784  0.690071  1
  O  O542  1  0.811314  0.199152  0.690070  1
  O  O543  1  0.188607  0.199158  0.690074  1
  O  O544  1  0.811308  0.300778  0.690071  1
  O  O545  1  0.615370  0.165569  0.681043  1
  O  O546  1  0.384541  0.165567  0.681045  1
  O  O547  1  0.206471  0.332035  0.660224  1
  O  O548  1  0.793429  0.167903  0.660223  1
  O  O549  1  0.206484  0.167914  0.660225  1
  O  O550  1  0.793424  0.332028  0.660224  1
  O  O551  1  0.154396  0.249973  0.643060  1
  O  O552  1  0.845511  0.249966  0.643059  1
  O  O553  1  0.000000  0.319078  0.647343  1
  O  O554  1  -0.000000  0.180861  0.647344  1
  O  O555  1  0.499960  0.071606  0.598631  1
  O  O556  1  0.657945  0.000000  0.598869  1
  O  O557  1  0.341964  0.000000  0.598871  1
  O  O558  1  -0.000000  0.069741  0.692872  1
  O  O559  1  0.499944  0.249969  0.600821  1
  O  O560  1  0.342957  0.249979  0.578339  1
  O  O561  1  0.656934  0.249970  0.578339  1
  O  O562  1  0.000000  0.249967  0.694976  1
  O  O563  1  0.499948  0.319677  0.708459  1
  O  O564  1  0.499962  0.180269  0.708461  1
  O  O565  1  0.000000  0.249969  0.592189  1
  O  O566  1  0.499952  0.249969  0.686003  1
  O  O567  1  0.154340  0.070172  0.715253  1
  O  O568  1  0.845560  0.070169  0.715253  1
  Si  Si569  1  0.499947  0.688803  0.184940  1
  Si  Si570  1  0.499953  0.811144  0.184939  1
  Si  Si571  1  0.782160  0.845800  0.264566  1
  Si  Si572  1  0.217729  0.845804  0.264566  1
  Si  Si573  1  0.750753  0.843023  0.195189  1
  Si  Si574  1  0.249153  0.843024  0.195189  1
  Si  Si575  1  0.864505  0.811169  0.229145  1
  Si  Si576  1  0.135403  0.688775  0.229147  1
  Si  Si577  1  0.864506  0.688774  0.229145  1
  Si  Si578  1  0.135402  0.811170  0.229145  1
  Si  Si579  1  0.635223  0.938661  0.278291  1
  Si  Si580  1  0.364648  0.938667  0.278293  1
  Si  Si581  1  0.864798  0.939639  0.178020  1
  Si  Si582  1  0.135111  0.939641  0.178021  1
  Si  Si583  1  0.635315  0.749971  0.276005  1
  Si  Si584  1  0.364592  0.749980  0.276005  1
  Si  Si585  1  0.864646  0.749978  0.175793  1
  Si  Si586  1  0.135258  0.749977  0.175795  1
  Si  Si587  1  0.000000  0.811241  0.285027  1
  Si  Si588  1  0.000000  0.688708  0.285026  1
  Si  Si589  1  0.364790  0.439637  0.278272  1
  Si  Si590  1  0.864787  0.560317  0.178014  1
  Si  Si591  1  0.135100  0.560319  0.178015  1
  Si  Si592  1  0.635103  0.439631  0.278271  1
  Si  Si593  1  0.717735  0.345806  0.191723  1
  Si  Si594  1  0.217745  0.654150  0.264568  1
  Si  Si595  1  0.782162  0.654143  0.264565  1
  Si  Si596  1  0.282158  0.345808  0.191723  1
  Si  Si597  1  0.749147  0.343018  0.261100  1
  Si  Si598  1  0.249145  0.656927  0.195190  1
  Si  Si599  1  0.750755  0.656929  0.195188  1
  Si  Si600  1  0.250750  0.343024  0.261100  1
  Si  Si601  1  0.864659  0.438669  0.177997  1
  Si  Si602  1  0.364672  0.561285  0.278292  1
  Si  Si603  1  0.635246  0.561280  0.278292  1
  Si  Si604  1  0.135233  0.438670  0.177997  1
  Si  Si605  1  0.000000  0.188801  0.271350  1
  Si  Si606  1  0.000000  0.311142  0.271350  1
  Si  Si607  1  0.282159  0.154154  0.191724  1
  Si  Si608  1  0.717738  0.154150  0.191725  1
  Si  Si609  1  0.250753  0.156928  0.261101  1
  Si  Si610  1  0.749144  0.156924  0.261101  1
  Si  Si611  1  0.635401  0.311173  0.227143  1
  Si  Si612  1  0.364502  0.188781  0.227145  1
  Si  Si613  1  0.635398  0.188779  0.227145  1
  Si  Si614  1  0.364503  0.311176  0.227143  1
  Si  Si615  1  0.135239  0.061289  0.177999  1
  Si  Si616  1  0.864664  0.061287  0.177999  1
  Si  Si617  1  0.364788  0.060315  0.278274  1
  Si  Si618  1  0.635102  0.060309  0.278272  1
  Si  Si619  1  0.864583  0.249976  0.180284  1
  Si  Si620  1  0.135306  0.249980  0.180285  1
  Si  Si621  1  0.635253  0.249971  0.280496  1
  Si  Si622  1  0.364641  0.249978  0.280496  1
  Si  Si623  1  0.499944  0.311244  0.171263  1
  Si  Si624  1  0.499952  0.188711  0.171264  1
  Si  Si625  1  0.282163  0.845799  0.125384  1
  Si  Si626  1  0.717748  0.845797  0.125382  1
  Si  Si627  1  0.364497  0.811172  0.089963  1
  Si  Si628  1  0.635393  0.688778  0.089961  1
  Si  Si629  1  0.364497  0.688778  0.089960  1
  Si  Si630  1  0.635394  0.811173  0.089962  1
  Si  Si631  1  0.135242  0.938663  0.139110  1
  Si  Si632  1  0.864668  0.938660  0.139110  1
  Si  Si633  1  0.135318  0.749968  0.136821  1
  Si  Si634  1  0.864596  0.749969  0.136820  1
  Si  Si635  1  0.499958  0.811234  0.145842  1
  Si  Si636  1  0.499950  0.688700  0.145843  1
  Si  Si637  1  0.864794  0.439630  0.139086  1
  Si  Si638  1  0.717734  0.654144  0.125381  1
  Si  Si639  1  0.282168  0.654142  0.125380  1
  Si  Si640  1  0.249149  0.343018  0.121916  1
  Si  Si641  1  0.750755  0.343014  0.121916  1
  Si  Si642  1  0.864659  0.561278  0.139104  1
  Si  Si643  1  0.135233  0.561281  0.139105  1
  Si  Si644  1  0.135108  0.439632  0.139087  1
  Si  Si645  1  0.499958  0.188799  0.132167  1
  Si  Si646  1  0.499951  0.311140  0.132165  1
  Si  Si647  1  0.750755  0.156919  0.121915  1
  Si  Si648  1  0.249154  0.156923  0.121917  1
  Si  Si649  1  0.864794  0.060308  0.139088  1
  Si  Si650  1  0.135107  0.060311  0.139088  1
  Si  Si651  1  0.135260  0.249971  0.141312  1
  Si  Si652  1  0.864648  0.249965  0.141310  1
  Si  Si653  1  0.499947  0.688803  0.463309  1
  Si  Si654  1  0.499953  0.811144  0.463308  1
  Si  Si655  1  0.782160  0.845800  0.542934  1
  Si  Si656  1  0.217729  0.845804  0.542935  1
  Si  Si657  1  0.750753  0.843023  0.473558  1
  Si  Si658  1  0.249153  0.843024  0.473558  1
  Si  Si659  1  0.864505  0.811169  0.507514  1
  Si  Si660  1  0.135403  0.688775  0.507515  1
  Si  Si661  1  0.864506  0.688774  0.507513  1
  Si  Si662  1  0.135402  0.811170  0.507514  1
  Si  Si663  1  0.635223  0.938661  0.556659  1
  Si  Si664  1  0.364648  0.938667  0.556661  1
  Si  Si665  1  0.864798  0.939639  0.456389  1
  Si  Si666  1  0.135111  0.939641  0.456389  1
  Si  Si667  1  0.635315  0.749971  0.554373  1
  Si  Si668  1  0.364592  0.749980  0.554374  1
  Si  Si669  1  0.864646  0.749978  0.454162  1
  Si  Si670  1  0.135258  0.749977  0.454163  1
  Si  Si671  1  0.000000  0.811241  0.563396  1
  Si  Si672  1  -0.000000  0.688708  0.563395  1
  Si  Si673  1  0.364790  0.439637  0.556640  1
  Si  Si674  1  0.864787  0.560317  0.456383  1
  Si  Si675  1  0.135100  0.560319  0.456384  1
  Si  Si676  1  0.635103  0.439631  0.556640  1
  Si  Si677  1  0.717735  0.345806  0.470091  1
  Si  Si678  1  0.217745  0.654150  0.542936  1
  Si  Si679  1  0.782162  0.654143  0.542933  1
  Si  Si680  1  0.282158  0.345808  0.470092  1
  Si  Si681  1  0.749147  0.343018  0.539469  1
  Si  Si682  1  0.249145  0.656927  0.473558  1
  Si  Si683  1  0.750755  0.656929  0.473556  1
  Si  Si684  1  0.250750  0.343024  0.539469  1
  Si  Si685  1  0.864659  0.438669  0.456365  1
  Si  Si686  1  0.364672  0.561285  0.556661  1
  Si  Si687  1  0.635246  0.561280  0.556661  1
  Si  Si688  1  0.135233  0.438670  0.456366  1
  Si  Si689  1  -0.000000  0.188801  0.549718  1
  Si  Si690  1  -0.000000  0.311142  0.549718  1
  Si  Si691  1  0.282159  0.154154  0.470093  1
  Si  Si692  1  0.717738  0.154150  0.470094  1
  Si  Si693  1  0.250753  0.156928  0.539470  1
  Si  Si694  1  0.749144  0.156924  0.539470  1
  Si  Si695  1  0.635401  0.311173  0.505512  1
  Si  Si696  1  0.364502  0.188781  0.505513  1
  Si  Si697  1  0.635398  0.188779  0.505514  1
  Si  Si698  1  0.364503  0.311176  0.505512  1
  Si  Si699  1  0.135239  0.061289  0.456367  1
  Si  Si700  1  0.864664  0.061287  0.456367  1
  Si  Si701  1  0.364788  0.060315  0.556643  1
  Si  Si702  1  0.635102  0.060309  0.556641  1
  Si  Si703  1  0.864583  0.249976  0.458653  1
  Si  Si704  1  0.135306  0.249980  0.458654  1
  Si  Si705  1  0.635253  0.249971  0.558865  1
  Si  Si706  1  0.364641  0.249978  0.558864  1
  Si  Si707  1  0.499944  0.311244  0.449631  1
  Si  Si708  1  0.499952  0.188711  0.449633  1
  Si  Si709  1  0.000000  0.688799  0.324123  1
  Si  Si710  1  0.000000  0.811140  0.324125  1
  Si  Si711  1  0.282163  0.845799  0.403752  1
  Si  Si712  1  0.717748  0.845797  0.403750  1
  Si  Si713  1  0.250751  0.843019  0.334375  1
  Si  Si714  1  0.749146  0.843015  0.334373  1
  Si  Si715  1  0.364497  0.811172  0.368331  1
  Si  Si716  1  0.635393  0.688778  0.368329  1
  Si  Si717  1  0.364497  0.688778  0.368329  1
  Si  Si718  1  0.635394  0.811173  0.368330  1
  Si  Si719  1  0.135242  0.938663  0.417479  1
  Si  Si720  1  0.864668  0.938660  0.417479  1
  Si  Si721  1  0.364792  0.939632  0.317203  1
  Si  Si722  1  0.635105  0.939628  0.317201  1
  Si  Si723  1  0.135318  0.749968  0.415190  1
  Si  Si724  1  0.864596  0.749969  0.415188  1
  Si  Si725  1  0.364645  0.749974  0.314978  1
  Si  Si726  1  0.635257  0.749966  0.314978  1
  Si  Si727  1  0.499958  0.811234  0.424211  1
  Si  Si728  1  0.499950  0.688700  0.424211  1
  Si  Si729  1  0.864794  0.439630  0.417455  1
  Si  Si730  1  0.364808  0.560310  0.317203  1
  Si  Si731  1  0.635122  0.560306  0.317202  1
  Si  Si732  1  0.217736  0.345801  0.330908  1
  Si  Si733  1  0.717734  0.654144  0.403749  1
  Si  Si734  1  0.282168  0.654142  0.403749  1
  Si  Si735  1  0.782161  0.345793  0.330908  1
  Si  Si736  1  0.249149  0.343018  0.400285  1
  Si  Si737  1  0.749151  0.656921  0.334374  1
  Si  Si738  1  0.250754  0.656924  0.334372  1
  Si  Si739  1  0.750755  0.343014  0.400285  1
  Si  Si740  1  0.364666  0.438662  0.317182  1
  Si  Si741  1  0.864659  0.561278  0.417472  1
  Si  Si742  1  0.135233  0.561281  0.417474  1
  Si  Si743  1  0.635240  0.438658  0.317181  1
  Si  Si744  1  0.135108  0.439632  0.417456  1
  Si  Si745  1  0.499958  0.188799  0.410535  1
  Si  Si746  1  0.499951  0.311140  0.410534  1
  Si  Si747  1  0.782167  0.154141  0.330907  1
  Si  Si748  1  0.217741  0.154144  0.330909  1
  Si  Si749  1  0.750755  0.156919  0.400284  1
  Si  Si750  1  0.249154  0.156923  0.400286  1
  Si  Si751  1  0.135397  0.311170  0.366328  1
  Si  Si752  1  0.864510  0.188769  0.366328  1
  Si  Si753  1  0.135406  0.188775  0.366329  1
  Si  Si754  1  0.864501  0.311164  0.366328  1
  Si  Si755  1  0.635245  0.061276  0.317182  1
  Si  Si756  1  0.364671  0.061281  0.317184  1
  Si  Si757  1  0.864794  0.060308  0.417457  1
  Si  Si758  1  0.135107  0.060311  0.417457  1
  Si  Si759  1  0.364584  0.249973  0.319469  1
  Si  Si760  1  0.635306  0.249966  0.319470  1
  Si  Si761  1  0.135260  0.249971  0.419680  1
  Si  Si762  1  0.864648  0.249965  0.419679  1
  Si  Si763  1  0.000000  0.311236  0.310447  1
  Si  Si764  1  0.000000  0.188702  0.310447  1
  Si  Si765  1  0.499947  0.688803  0.741677  1
  Si  Si766  1  0.499953  0.811144  0.741677  1
  Si  Si767  1  0.750753  0.843023  0.751927  1
  Si  Si768  1  0.249153  0.843024  0.751927  1
  Si  Si769  1  0.864798  0.939639  0.734758  1
  Si  Si770  1  0.135111  0.939641  0.734758  1
  Si  Si771  1  0.864646  0.749978  0.732531  1
  Si  Si772  1  0.135258  0.749977  0.732532  1
  Si  Si773  1  0.864787  0.560317  0.734751  1
  Si  Si774  1  0.135100  0.560319  0.734752  1
  Si  Si775  1  0.717735  0.345806  0.748460  1
  Si  Si776  1  0.282158  0.345808  0.748461  1
  Si  Si777  1  0.249145  0.656927  0.751927  1
  Si  Si778  1  0.750755  0.656929  0.751925  1
  Si  Si779  1  0.864659  0.438669  0.734734  1
  Si  Si780  1  0.135233  0.438670  0.734735  1
  Si  Si781  1  0.282159  0.154154  0.748462  1
  Si  Si782  1  0.717738  0.154150  0.748462  1
  Si  Si783  1  0.635401  0.311173  0.783880  1
  Si  Si784  1  0.364502  0.188781  0.783882  1
  Si  Si785  1  0.635398  0.188779  0.783882  1
  Si  Si786  1  0.364503  0.311176  0.783881  1
  Si  Si787  1  0.135239  0.061289  0.734736  1
  Si  Si788  1  0.864664  0.061287  0.734736  1
  Si  Si789  1  0.864583  0.249976  0.737021  1
  Si  Si790  1  0.135306  0.249980  0.737022  1
  Si  Si791  1  0.499944  0.311244  0.728000  1
  Si  Si792  1  0.499952  0.188711  0.728001  1
  Si  Si793  1  0.000000  0.688799  0.602492  1
  Si  Si794  1  0.000000  0.811140  0.602493  1
  Si  Si795  1  0.282163  0.845799  0.682121  1
  Si  Si796  1  0.717748  0.845797  0.682119  1
  Si  Si797  1  0.250751  0.843019  0.612743  1
  Si  Si798  1  0.749146  0.843015  0.612742  1
  Si  Si799  1  0.364497  0.811172  0.646700  1
  Si  Si800  1  0.635393  0.688778  0.646698  1
  Si  Si801  1  0.364497  0.688778  0.646698  1
  Si  Si802  1  0.635394  0.811173  0.646699  1
  Si  Si803  1  0.135242  0.938663  0.695848  1
  Si  Si804  1  0.864668  0.938660  0.695847  1
  Si  Si805  1  0.364792  0.939632  0.595572  1
  Si  Si806  1  0.635105  0.939628  0.595569  1
  Si  Si807  1  0.135318  0.749968  0.693559  1
  Si  Si808  1  0.864596  0.749969  0.693557  1
  Si  Si809  1  0.364645  0.749974  0.593347  1
  Si  Si810  1  0.635257  0.749966  0.593347  1
  Si  Si811  1  0.499958  0.811234  0.702579  1
  Si  Si812  1  0.499950  0.688700  0.702580  1
  Si  Si813  1  0.864794  0.439630  0.695824  1
  Si  Si814  1  0.364808  0.560310  0.595571  1
  Si  Si815  1  0.635122  0.560306  0.595571  1
  Si  Si816  1  0.217736  0.345801  0.609277  1
  Si  Si817  1  0.717734  0.654144  0.682118  1
  Si  Si818  1  0.282168  0.654142  0.682118  1
  Si  Si819  1  0.782161  0.345793  0.609276  1
  Si  Si820  1  0.249149  0.343018  0.678653  1
  Si  Si821  1  0.749151  0.656921  0.612743  1
  Si  Si822  1  0.250754  0.656924  0.612741  1
  Si  Si823  1  0.750755  0.343014  0.678653  1
  Si  Si824  1  0.364666  0.438662  0.595550  1
  Si  Si825  1  0.864659  0.561278  0.695841  1
  Si  Si826  1  0.135233  0.561281  0.695842  1
  Si  Si827  1  0.635240  0.438658  0.595550  1
  Si  Si828  1  0.135108  0.439632  0.695825  1
  Si  Si829  1  0.499958  0.188799  0.688904  1
  Si  Si830  1  0.499951  0.311140  0.688903  1
  Si  Si831  1  0.782167  0.154141  0.609276  1
  Si  Si832  1  0.217741  0.154144  0.609277  1
  Si  Si833  1  0.750755  0.156919  0.678652  1
  Si  Si834  1  0.249154  0.156923  0.678655  1
  Si  Si835  1  0.135397  0.311170  0.644697  1
  Si  Si836  1  0.864510  0.188769  0.644696  1
  Si  Si837  1  0.135406  0.188775  0.644698  1
  Si  Si838  1  0.864501  0.311164  0.644697  1
  Si  Si839  1  0.635245  0.061276  0.595551  1
  Si  Si840  1  0.364671  0.061281  0.595553  1
  Si  Si841  1  0.864794  0.060308  0.695826  1
  Si  Si842  1  0.135107  0.060311  0.695826  1
  Si  Si843  1  0.364584  0.249973  0.597838  1
  Si  Si844  1  0.635306  0.249966  0.597838  1
  Si  Si845  1  0.135260  0.249971  0.698049  1
  Si  Si846  1  0.864648  0.249965  0.698048  1
  Si  Si847  1  0.000000  0.311236  0.588816  1
  Si  Si848  1  -0.000000  0.188702  0.588816  1
  H  H849  1  0.293422  0.832037  0.063081  1
  H  H850  1  0.706473  0.667910  0.063080  1
  H  H851  1  0.293418  0.667917  0.063079  1
  H  H852  1  0.706462  0.832036  0.063080  1
  H  H853  1  0.206471  0.332035  0.092133  1
  H  H854  1  0.793429  0.167903  0.092131  1
  H  H855  1  0.206484  0.167914  0.092134  1
  H  H856  1  0.793424  0.332028  0.092132  1
  H  H857  1  0.793426  0.832032  0.781710  1
  H  H858  1  0.206476  0.667907  0.781711  1
  H  H859  1  0.793440  0.667910  0.781708  1
  H  H860  1  0.206482  0.832033  0.781710  1
  H  H861  1  0.706475  0.332033  0.810763  1
  H  H862  1  0.293431  0.167914  0.810763  1
  H  H863  1  0.706472  0.167915  0.810764  1
  H  H864  1  0.293429  0.332042  0.810762  1
