# generated using pymatgen
data_Si38H2O77
_symmetry_space_group_name_H-M   'P 1'
_cell_length_a   25.48081259
_cell_length_b   13.88888375
_cell_length_c   77.98057727
_cell_angle_alpha   90.00000000
_cell_angle_beta   90.00000000
_cell_angle_gamma   90.00000000
_symmetry_Int_Tables_number   1
_chemical_formula_structural   Si38H2O77
_chemical_formula_sum   'Si304 H16 O616'
_cell_volume   27597.3297223
_cell_formula_units_Z   8
loop_
 _symmetry_equiv_pos_site_id
 _symmetry_equiv_pos_as_xyz
  1  'x, y, z'
loop_
 _atom_site_type_symbol
 _atom_site_label
 _atom_site_symmetry_multiplicity
 _atom_site_fract_x
 _atom_site_fract_y
 _atom_site_fract_z
 _atom_site_occupancy
  O  O1  1  0.928101  0.865483  0.075739  1
  O  O2  1  0.928232  0.135282  0.075660  1
  O  O3  1  0.571857  0.635861  0.076031  1
  O  O4  1  0.572672  0.366203  0.076064  1
  O  O5  1  0.087549  0.170949  0.110758  1
  O  O6  1  0.411670  0.669817  0.110680  1
  O  O7  1  0.412361  0.329144  0.110698  1
  O  O8  1  0.087407  0.829434  0.110751  1
  O  O9  1  0.095008  0.092322  0.139502  1
  O  O10  1  0.094979  0.592352  0.192617  1
  O  O11  1  0.404113  0.591989  0.139473  1
  O  O12  1  0.403688  0.091824  0.192807  1
  O  O13  1  0.405051  0.907397  0.192455  1
  O  O14  1  0.404852  0.407549  0.139504  1
  O  O15  1  0.095119  0.407927  0.192633  1
  O  O16  1  0.095112  0.907918  0.139490  1
  O  O17  1  0.149915  0.242062  0.135150  1
  O  O18  1  0.350001  0.742857  0.135099  1
  O  O19  1  0.350290  0.257356  0.135151  1
  O  O20  1  0.149721  0.757861  0.135111  1
  O  O21  1  0.050279  0.252153  0.138329  1
  O  O22  1  0.050150  0.752111  0.193783  1
  O  O23  1  0.449681  0.751077  0.138096  1
  O  O24  1  0.449747  0.250747  0.193857  1
  O  O25  1  0.449881  0.747931  0.194069  1
  O  O26  1  0.449949  0.248087  0.138195  1
  O  O27  1  0.050219  0.248242  0.193826  1
  O  O28  1  0.050108  0.748269  0.138310  1
  O  O29  1  0.427793  0.633968  0.076203  1
  O  O30  1  0.499435  0.901652  0.148130  1
  O  O31  1  0.070534  0.000000  0.098256  1
  O  O32  1  0.429270  0.499220  0.098163  1
  O  O33  1  0.072320  0.134943  0.076275  1
  O  O34  1  0.428612  0.364355  0.076146  1
  O  O35  1  0.072142  0.865281  0.076304  1
  O  O36  1  0.190289  0.900521  0.184409  1
  O  O37  1  0.190260  0.400494  0.147702  1
  O  O38  1  0.308524  0.400644  0.184438  1
  O  O39  1  0.308535  0.900701  0.147666  1
  O  O40  1  0.308782  0.099634  0.147710  1
  O  O41  1  0.308822  0.599562  0.184383  1
  O  O42  1  0.190174  0.599451  0.147665  1
  O  O43  1  0.190208  0.099471  0.184447  1
  O  O44  1  0.151312  0.000000  0.160644  1
  O  O45  1  0.151266  0.500135  0.171467  1
  O  O46  1  0.349525  0.499484  0.160981  1
  O  O47  1  0.349602  0.000000  0.171092  1
  O  O48  1  0.250589  0.000000  0.166525  1
  O  O49  1  0.250545  0.500287  0.165592  1
  O  O50  1  0.181350  0.250003  0.166078  1
  O  O51  1  0.181242  0.750015  0.166037  1
  O  O52  1  0.318526  0.750109  0.166020  1
  O  O53  1  0.318678  0.250072  0.166093  1
  O  O54  1  0.249977  0.249463  0.189111  1
  O  O55  1  0.249856  0.749603  0.143000  1
  O  O56  1  0.249946  0.750388  0.189058  1
  O  O57  1  0.250085  0.250589  0.143055  1
  O  O58  1  0.050637  0.000000  0.163022  1
  O  O59  1  0.050600  0.499913  0.169105  1
  O  O60  1  0.449712  0.500663  0.162893  1
  O  O61  1  0.449844  0.002369  0.169292  1
  O  O62  1  0.499936  0.401462  0.184042  1
  O  O63  1  0.588660  0.670468  0.110556  1
  O  O64  1  0.910792  0.170094  0.110207  1
  O  O65  1  0.910641  0.830532  0.110254  1
  O  O66  1  0.589391  0.330694  0.110506  1
  O  O67  1  0.595077  0.592848  0.139481  1
  O  O68  1  0.595229  0.092717  0.192561  1
  O  O69  1  0.904755  0.092162  0.139106  1
  O  O70  1  0.904821  0.592190  0.193004  1
  O  O71  1  0.904990  0.407696  0.192936  1
  O  O72  1  0.904998  0.907654  0.139213  1
  O  O73  1  0.596166  0.907975  0.192838  1
  O  O74  1  0.596194  0.408103  0.139364  1
  O  O75  1  0.650048  0.742834  0.135139  1
  O  O76  1  0.850126  0.242457  0.134998  1
  O  O77  1  0.849918  0.757923  0.135015  1
  O  O78  1  0.650361  0.256990  0.135074  1
  O  O79  1  0.550075  0.752769  0.137558  1
  O  O80  1  0.949982  0.251869  0.137312  1
  O  O81  1  0.949874  0.752018  0.194826  1
  O  O82  1  0.949931  0.247852  0.194842  1
  O  O83  1  0.949816  0.747773  0.137269  1
  O  O84  1  0.550277  0.748546  0.194523  1
  O  O85  1  0.550349  0.248803  0.137457  1
  O  O86  1  0.501847  0.750002  0.166058  1
  O  O87  1  0.502650  0.250153  0.166051  1
  O  O88  1  0.996800  0.750019  0.166047  1
  O  O89  1  0.501156  0.098630  0.148097  1
  O  O90  1  0.000000  0.901670  0.183946  1
  O  O91  1  -0.000000  0.401629  0.148165  1
  O  O92  1  0.500036  0.624043  0.098216  1
  O  O93  1  -0.000000  0.598395  0.148138  1
  O  O94  1  -0.000000  0.876532  0.098115  1
  O  O95  1  0.571390  0.500902  0.097998  1
  O  O96  1  0.928268  0.000000  0.097643  1
  O  O97  1  0.691419  0.400628  0.184342  1
  O  O98  1  0.691466  0.900450  0.147756  1
  O  O99  1  0.810317  0.900735  0.184347  1
  O  O100  1  0.810281  0.400739  0.147789  1
  O  O101  1  0.810225  0.599472  0.147799  1
  O  O102  1  0.810187  0.099458  0.184331  1
  O  O103  1  0.691681  0.099323  0.147728  1
  O  O104  1  0.691701  0.599464  0.184411  1
  O  O105  1  0.650667  0.500757  0.160900  1
  O  O106  1  0.650721  0.000000  0.171220  1
  O  O107  1  0.848806  0.000000  0.160402  1
  O  O108  1  0.848762  0.500055  0.171737  1
  O  O109  1  0.749655  0.499926  0.165584  1
  O  O110  1  0.749681  0.000000  0.166531  1
  O  O111  1  0.681412  0.750019  0.166097  1
  O  O112  1  0.681564  0.249999  0.166026  1
  O  O113  1  0.819263  0.250056  0.166054  1
  O  O114  1  0.819139  0.750066  0.166068  1
  O  O115  1  0.750240  0.750957  0.189045  1
  O  O116  1  0.750378  0.250705  0.143086  1
  O  O117  1  0.750277  0.249489  0.189001  1
  O  O118  1  0.750140  0.749187  0.143121  1
  O  O119  1  0.550546  0.498911  0.162811  1
  O  O120  1  0.550595  0.998246  0.169318  1
  O  O121  1  0.949324  0.000000  0.162678  1
  O  O122  1  0.949288  0.500368  0.169435  1
  O  O123  1  0.550157  0.252376  0.194688  1
  O  O124  1  0.996970  0.250040  0.166080  1
  O  O125  1  0.500651  0.376045  0.098207  1
  O  O126  1  0.500690  0.598472  0.184014  1
  O  O127  1  -0.000000  0.098399  0.183984  1
  O  O128  1  0.000000  0.124288  0.098056  1
  O  O129  1  0.089787  0.670180  0.290308  1
  O  O130  1  0.087457  0.671018  0.221352  1
  O  O131  1  0.412531  0.170903  0.290632  1
  O  O132  1  0.412258  0.171083  0.221474  1
  O  O133  1  0.411760  0.830401  0.221375  1
  O  O134  1  0.410978  0.831834  0.290398  1
  O  O135  1  0.087495  0.329528  0.221370  1
  O  O136  1  0.089869  0.329875  0.290271  1
  O  O137  1  0.150949  0.744013  0.314842  1
  O  O138  1  0.149794  0.742186  0.196966  1
  O  O139  1  0.350964  0.242985  0.315064  1
  O  O140  1  0.350144  0.243206  0.197047  1
  O  O141  1  0.350141  0.757555  0.196931  1
  O  O142  1  0.350925  0.756441  0.314954  1
  O  O143  1  0.149840  0.257959  0.197005  1
  O  O144  1  0.151003  0.257659  0.315050  1
  O  O145  1  0.001034  0.624058  0.278234  1
  O  O146  1  0.499743  0.876190  0.278114  1
  O  O147  1  0.072079  0.500127  0.277765  1
  O  O148  1  0.070512  0.500314  0.233867  1
  O  O149  1  0.429098  0.001069  0.277893  1
  O  O150  1  0.429279  0.000000  0.233948  1
  O  O151  1  0.072231  0.635081  0.255835  1
  O  O152  1  0.428557  0.135821  0.255992  1
  O  O153  1  0.427852  0.866211  0.255878  1
  O  O154  1  0.072179  0.365353  0.255818  1
  O  O155  1  0.001013  0.376215  0.278206  1
  O  O156  1  0.589219  0.169764  0.290447  1
  O  O157  1  0.589291  0.169400  0.221544  1
  O  O158  1  0.913089  0.670528  0.291002  1
  O  O159  1  0.910691  0.669974  0.221913  1
  O  O160  1  0.910716  0.330425  0.221880  1
  O  O161  1  0.912961  0.329778  0.290900  1
  O  O162  1  0.588778  0.829610  0.221636  1
  O  O163  1  0.588028  0.828943  0.290632  1
  O  O164  1  0.650725  0.243239  0.314958  1
  O  O165  1  0.650218  0.242793  0.196962  1
  O  O166  1  0.851064  0.742567  0.315253  1
  O  O167  1  0.849994  0.742292  0.197128  1
  O  O168  1  0.850032  0.257787  0.197116  1
  O  O169  1  0.851086  0.256873  0.315128  1
  O  O170  1  0.650198  0.756881  0.197074  1
  O  O171  1  0.650571  0.756207  0.314934  1
  O  O172  1  -0.000000  0.624271  0.234063  1
  O  O173  1  0.571155  -0.000000  0.278049  1
  O  O174  1  0.571396  -0.000000  0.234123  1
  O  O175  1  0.929914  0.500220  0.278387  1
  O  O176  1  0.928244  0.500448  0.234486  1
  O  O177  1  0.572624  0.134146  0.256026  1
  O  O178  1  0.928156  0.635233  0.256461  1
  O  O179  1  0.928152  0.365444  0.256399  1
  O  O180  1  0.571895  0.864526  0.256128  1
  O  O181  1  0.500542  0.124179  0.278098  1
  O  O182  1  -0.000000  0.376531  0.234015  1
  O  O183  1  0.500616  0.124137  0.233903  1
  O  O184  1  0.500080  0.876145  0.233895  1
  O  O185  1  0.090068  0.169464  0.401693  1
  O  O186  1  0.411065  0.668586  0.401561  1
  O  O187  1  0.412681  0.329154  0.401415  1
  O  O188  1  0.089841  0.829929  0.401734  1
  O  O189  1  0.098175  0.592188  0.319132  1
  O  O190  1  0.099290  0.092066  0.372778  1
  O  O191  1  0.404383  0.091941  0.319470  1
  O  O192  1  0.405278  0.592667  0.372438  1
  O  O193  1  0.405403  0.407748  0.372542  1
  O  O194  1  0.404463  0.907217  0.319602  1
  O  O195  1  0.097535  0.907681  0.372871  1
  O  O196  1  0.096123  0.407651  0.319107  1
  O  O197  1  0.151179  0.244295  0.377214  1
  O  O198  1  0.350667  0.742790  0.376961  1
  O  O199  1  0.351306  0.256961  0.376969  1
  O  O200  1  0.150873  0.756705  0.377019  1
  O  O201  1  0.051083  0.750942  0.317430  1
  O  O202  1  0.051294  0.250019  0.374597  1
  O  O203  1  0.450539  0.251235  0.318182  1
  O  O204  1  0.450593  0.752454  0.374710  1
  O  O205  1  0.450858  0.247957  0.373957  1
  O  O206  1  0.450923  0.748381  0.317203  1
  O  O207  1  0.050898  0.748491  0.374759  1
  O  O208  1  0.051111  0.247302  0.317210  1
  O  O209  1  0.004011  0.749282  0.346099  1
  O  O210  1  0.004348  0.250214  0.345906  1
  O  O211  1  0.497449  0.749537  0.345972  1
  O  O212  1  0.002443  0.901536  0.328476  1
  O  O213  1  0.499698  0.624075  0.413921  1
  O  O214  1  0.072002  0.000000  0.414229  1
  O  O215  1  0.429056  0.499188  0.414115  1
  O  O216  1  0.192405  0.400974  0.364485  1
  O  O217  1  0.192988  0.900827  0.327409  1
  O  O218  1  0.309415  0.900573  0.364250  1
  O  O219  1  0.309882  0.400508  0.327822  1
  O  O220  1  0.310188  0.598843  0.327785  1
  O  O221  1  0.309714  0.099131  0.364321  1
  O  O222  1  0.191934  0.099780  0.327590  1
  O  O223  1  0.191328  0.599616  0.364253  1
  O  O224  1  0.145195  0.497783  0.342138  1
  O  O225  1  0.142544  0.998212  0.348878  1
  O  O226  1  0.342832  0.000000  0.339566  1
  O  O227  1  0.344629  0.499679  0.352363  1
  O  O228  1  0.245681  0.500382  0.344402  1
  O  O229  1  0.243958  0.000000  0.348108  1
  O  O230  1  0.182050  0.750543  0.345894  1
  O  O231  1  0.182256  0.250004  0.346129  1
  O  O232  1  0.319651  0.249719  0.346046  1
  O  O233  1  0.319569  0.750002  0.345955  1
  O  O234  1  0.250746  0.749590  0.368923  1
  O  O235  1  0.250869  0.250100  0.323064  1
  O  O236  1  0.251185  0.250164  0.369118  1
  O  O237  1  0.250934  0.748977  0.322915  1
  O  O238  1  0.044182  0.501425  0.340695  1
  O  O239  1  0.042166  0.001022  0.352047  1
  O  O240  1  0.442376  0.000000  0.344299  1
  O  O241  1  0.444238  0.499823  0.347868  1
  O  O242  1  0.002715  0.401299  0.363817  1
  O  O243  1  0.001096  0.124128  0.413776  1
  O  O244  1  -0.000000  0.876023  0.413813  1
  O  O245  1  0.001671  0.597985  0.363977  1
  O  O246  1  0.001647  0.097815  0.328328  1
  O  O247  1  0.587836  0.671697  0.401410  1
  O  O248  1  0.913156  0.170371  0.401017  1
  O  O249  1  0.912777  0.829913  0.401142  1
  O  O250  1  0.589314  0.330494  0.401573  1
  O  O251  1  0.597231  0.092616  0.319331  1
  O  O252  1  0.597232  0.591534  0.372852  1
  O  O253  1  0.905805  0.592570  0.319886  1
  O  O254  1  0.904799  0.092432  0.372130  1
  O  O255  1  0.904469  0.907624  0.372245  1
  O  O256  1  0.905147  0.407561  0.319772  1
  O  O257  1  0.595742  0.407091  0.372660  1
  O  O258  1  0.598696  0.908300  0.319287  1
  O  O259  1  0.650256  0.743222  0.376993  1
  O  O260  1  0.851298  0.243273  0.376820  1
  O  O261  1  0.850751  0.757034  0.376946  1
  O  O262  1  0.650891  0.257677  0.377042  1
  O  O263  1  0.550823  0.251830  0.317495  1
  O  O264  1  0.550845  0.750648  0.373630  1
  O  O265  1  0.950758  0.752614  0.318418  1
  O  O266  1  0.950992  0.251629  0.373561  1
  O  O267  1  0.950470  0.748282  0.373726  1
  O  O268  1  0.950734  0.247902  0.318296  1
  O  O269  1  0.551118  0.246660  0.374537  1
  O  O270  1  0.551187  0.750006  0.318406  1
  O  O271  1  0.503084  0.250589  0.346042  1
  O  O272  1  0.928101  0.865483  0.435639  1
  O  O273  1  0.928232  0.135282  0.435560  1
  O  O274  1  0.501168  0.401857  0.328154  1
  O  O275  1  0.571236  0.501136  0.413981  1
  O  O276  1  0.929982  0.000000  0.413643  1
  O  O277  1  0.571857  0.635861  0.435931  1
  O  O278  1  0.691857  0.900707  0.364516  1
  O  O279  1  0.691681  0.400386  0.327580  1
  O  O280  1  0.809789  0.400921  0.364264  1
  O  O281  1  0.809057  0.900423  0.327697  1
  O  O282  1  0.809214  0.099135  0.327681  1
  O  O283  1  0.809332  0.599402  0.364335  1
  O  O284  1  0.691338  0.599152  0.327649  1
  O  O285  1  0.692439  0.099751  0.364617  1
  O  O286  1  0.642336  0.001428  0.343218  1
  O  O287  1  0.645369  0.498812  0.349944  1
  O  O288  1  0.844700  0.500517  0.339873  1
  O  O289  1  0.842848  0.000000  0.352285  1
  O  O290  1  0.743778  0.000000  0.343973  1
  O  O291  1  0.745645  0.499852  0.347503  1
  O  O292  1  0.682207  0.249686  0.346020  1
  O  O293  1  0.681888  0.750267  0.345995  1
  O  O294  1  0.818959  0.750150  0.346074  1
  O  O295  1  0.819265  0.249935  0.345979  1
  O  O296  1  0.750899  0.250579  0.369081  1
  O  O297  1  0.750660  0.749181  0.322965  1
  O  O298  1  0.750372  0.749916  0.369109  1
  O  O299  1  0.750781  0.250160  0.322927  1
  O  O300  1  0.541980  0.998862  0.340144  1
  O  O301  1  0.544209  0.501452  0.351017  1
  O  O302  1  0.944401  0.499089  0.344434  1
  O  O303  1  0.942637  0.000000  0.347455  1
  O  O304  1  0.501137  0.097820  0.363571  1
  O  O305  1  0.500627  0.598586  0.328043  1
  O  O306  1  0.500588  0.901473  0.363634  1
  O  O307  1  0.500585  0.376271  0.413916  1
  O  O308  1  0.572672  0.366203  0.435964  1
  O  O309  1  0.087549  0.170949  0.470657  1
  O  O310  1  0.411670  0.669817  0.470579  1
  O  O311  1  0.412361  0.329144  0.470597  1
  O  O312  1  0.087407  0.829434  0.470650  1
  O  O313  1  0.095008  0.092322  0.499401  1
  O  O314  1  0.094979  0.592352  0.552516  1
  O  O315  1  0.404113  0.591989  0.499373  1
  O  O316  1  0.403688  0.091824  0.552707  1
  O  O317  1  0.405051  0.907397  0.552355  1
  O  O318  1  0.404852  0.407549  0.499404  1
  O  O319  1  0.095119  0.407927  0.552532  1
  O  O320  1  0.095112  0.907918  0.499390  1
  O  O321  1  0.149915  0.242062  0.495050  1
  O  O322  1  0.350001  0.742857  0.494998  1
  O  O323  1  0.350290  0.257356  0.495050  1
  O  O324  1  0.149721  0.757861  0.495010  1
  O  O325  1  0.050279  0.252153  0.498229  1
  O  O326  1  0.050150  0.752111  0.553682  1
  O  O327  1  0.449681  0.751077  0.497996  1
  O  O328  1  0.449747  0.250747  0.553757  1
  O  O329  1  0.449881  0.747931  0.553969  1
  O  O330  1  0.449949  0.248087  0.498095  1
  O  O331  1  0.050219  0.248242  0.553725  1
  O  O332  1  0.050108  0.748269  0.498210  1
  O  O333  1  0.427793  0.633968  0.436103  1
  O  O334  1  0.499435  0.901652  0.508029  1
  O  O335  1  0.070534  0.000000  0.458155  1
  O  O336  1  0.429270  0.499220  0.458063  1
  O  O337  1  0.072320  0.134943  0.436175  1
  O  O338  1  0.428612  0.364355  0.436045  1
  O  O339  1  0.072142  0.865281  0.436203  1
  O  O340  1  0.190289  0.900521  0.544308  1
  O  O341  1  0.190260  0.400494  0.507602  1
  O  O342  1  0.308524  0.400644  0.544337  1
  O  O343  1  0.308535  0.900701  0.507566  1
  O  O344  1  0.308782  0.099634  0.507610  1
  O  O345  1  0.308822  0.599562  0.544282  1
  O  O346  1  0.190174  0.599451  0.507565  1
  O  O347  1  0.190208  0.099471  0.544346  1
  O  O348  1  0.151312  0.000000  0.520544  1
  O  O349  1  0.151266  0.500135  0.531367  1
  O  O350  1  0.349525  0.499484  0.520880  1
  O  O351  1  0.349602  -0.000000  0.530992  1
  O  O352  1  0.250589  0.000000  0.526424  1
  O  O353  1  0.250545  0.500287  0.525491  1
  O  O354  1  0.181350  0.250003  0.525978  1
  O  O355  1  0.181242  0.750015  0.525936  1
  O  O356  1  0.318526  0.750109  0.525920  1
  O  O357  1  0.318678  0.250072  0.525993  1
  O  O358  1  0.249977  0.249463  0.549011  1
  O  O359  1  0.249856  0.749603  0.502900  1
  O  O360  1  0.249946  0.750388  0.548957  1
  O  O361  1  0.250085  0.250589  0.502955  1
  O  O362  1  0.050637  -0.000000  0.522922  1
  O  O363  1  0.050600  0.499913  0.529004  1
  O  O364  1  0.449712  0.500663  0.522792  1
  O  O365  1  0.449844  0.002369  0.529192  1
  O  O366  1  0.499936  0.401462  0.543942  1
  O  O367  1  0.588660  0.670468  0.470456  1
  O  O368  1  0.910792  0.170094  0.470106  1
  O  O369  1  0.910641  0.830532  0.470153  1
  O  O370  1  0.589391  0.330694  0.470406  1
  O  O371  1  0.595077  0.592848  0.499380  1
  O  O372  1  0.595229  0.092717  0.552461  1
  O  O373  1  0.904755  0.092162  0.499006  1
  O  O374  1  0.904821  0.592190  0.552904  1
  O  O375  1  0.904990  0.407696  0.552836  1
  O  O376  1  0.904998  0.907654  0.499113  1
  O  O377  1  0.596166  0.907975  0.552737  1
  O  O378  1  0.596194  0.408103  0.499264  1
  O  O379  1  0.650048  0.742834  0.495038  1
  O  O380  1  0.850126  0.242457  0.494897  1
  O  O381  1  0.849918  0.757923  0.494914  1
  O  O382  1  0.650361  0.256990  0.494973  1
  O  O383  1  0.550075  0.752769  0.497457  1
  O  O384  1  0.949982  0.251869  0.497211  1
  O  O385  1  0.949874  0.752018  0.554725  1
  O  O386  1  0.949931  0.247852  0.554742  1
  O  O387  1  0.949816  0.747773  0.497169  1
  O  O388  1  0.550277  0.748546  0.554423  1
  O  O389  1  0.550349  0.248803  0.497357  1
  O  O390  1  0.501847  0.750002  0.525958  1
  O  O391  1  0.502650  0.250153  0.525951  1
  O  O392  1  0.996800  0.750019  0.525947  1
  O  O393  1  0.501156  0.098630  0.507997  1
  O  O394  1  -0.000000  0.901670  0.543846  1
  O  O395  1  0.000000  0.401629  0.508065  1
  O  O396  1  0.500036  0.624043  0.458116  1
  O  O397  1  0.000000  0.598395  0.508038  1
  O  O398  1  0.000000  0.876532  0.458015  1
  O  O399  1  0.571390  0.500902  0.457897  1
  O  O400  1  0.928268  0.000000  0.457543  1
  O  O401  1  0.691419  0.400628  0.544241  1
  O  O402  1  0.691466  0.900450  0.507656  1
  O  O403  1  0.810317  0.900735  0.544246  1
  O  O404  1  0.810281  0.400739  0.507688  1
  O  O405  1  0.810225  0.599472  0.507698  1
  O  O406  1  0.810187  0.099458  0.544231  1
  O  O407  1  0.691681  0.099323  0.507628  1
  O  O408  1  0.691701  0.599464  0.544311  1
  O  O409  1  0.650667  0.500757  0.520800  1
  O  O410  1  0.650721  0.000000  0.531119  1
  O  O411  1  0.848806  0.000000  0.520302  1
  O  O412  1  0.848762  0.500055  0.531636  1
  O  O413  1  0.749655  0.499926  0.525483  1
  O  O414  1  0.749681  0.000000  0.526431  1
  O  O415  1  0.681412  0.750019  0.525997  1
  O  O416  1  0.681564  0.249999  0.525926  1
  O  O417  1  0.819263  0.250056  0.525954  1
  O  O418  1  0.819139  0.750066  0.525968  1
  O  O419  1  0.750240  0.750957  0.548945  1
  O  O420  1  0.750378  0.250705  0.502986  1
  O  O421  1  0.750277  0.249489  0.548900  1
  O  O422  1  0.750140  0.749187  0.503020  1
  O  O423  1  0.550546  0.498911  0.522711  1
  O  O424  1  0.550595  0.998246  0.529218  1
  O  O425  1  0.949324  -0.000000  0.522578  1
  O  O426  1  0.949288  0.500368  0.529335  1
  O  O427  1  0.550157  0.252376  0.554587  1
  O  O428  1  0.996970  0.250040  0.525980  1
  O  O429  1  0.500651  0.376045  0.458107  1
  O  O430  1  0.500690  0.598472  0.543913  1
  O  O431  1  0.000000  0.098399  0.543884  1
  O  O432  1  0.000000  0.124288  0.457956  1
  O  O433  1  0.089787  0.670180  0.650208  1
  O  O434  1  0.087457  0.671018  0.581252  1
  O  O435  1  0.412531  0.170903  0.650531  1
  O  O436  1  0.412258  0.171083  0.581374  1
  O  O437  1  0.411760  0.830401  0.581275  1
  O  O438  1  0.410978  0.831834  0.650298  1
  O  O439  1  0.087495  0.329528  0.581269  1
  O  O440  1  0.089869  0.329875  0.650171  1
  O  O441  1  0.150949  0.744013  0.674741  1
  O  O442  1  0.149794  0.742186  0.556866  1
  O  O443  1  0.350964  0.242985  0.674963  1
  O  O444  1  0.350144  0.243206  0.556947  1
  O  O445  1  0.350141  0.757555  0.556831  1
  O  O446  1  0.350925  0.756441  0.674853  1
  O  O447  1  0.149840  0.257959  0.556905  1
  O  O448  1  0.151003  0.257659  0.674950  1
  O  O449  1  0.001034  0.624058  0.638133  1
  O  O450  1  0.499743  0.876190  0.638013  1
  O  O451  1  0.072079  0.500127  0.637665  1
  O  O452  1  0.070512  0.500314  0.593766  1
  O  O453  1  0.429098  0.001069  0.637793  1
  O  O454  1  0.429279  0.000000  0.593848  1
  O  O455  1  0.072231  0.635081  0.615735  1
  O  O456  1  0.428557  0.135821  0.615891  1
  O  O457  1  0.427852  0.866211  0.615778  1
  O  O458  1  0.072179  0.365353  0.615718  1
  O  O459  1  0.001013  0.376215  0.638106  1
  O  O460  1  0.589219  0.169764  0.650347  1
  O  O461  1  0.589291  0.169400  0.581444  1
  O  O462  1  0.913089  0.670528  0.650901  1
  O  O463  1  0.910691  0.669974  0.581813  1
  O  O464  1  0.910716  0.330425  0.581780  1
  O  O465  1  0.912961  0.329778  0.650800  1
  O  O466  1  0.588778  0.829610  0.581535  1
  O  O467  1  0.588028  0.828943  0.650532  1
  O  O468  1  0.650725  0.243239  0.674858  1
  O  O469  1  0.650218  0.242793  0.556862  1
  O  O470  1  0.851064  0.742567  0.675153  1
  O  O471  1  0.849994  0.742292  0.557027  1
  O  O472  1  0.850032  0.257787  0.557016  1
  O  O473  1  0.851086  0.256873  0.675028  1
  O  O474  1  0.650198  0.756881  0.556974  1
  O  O475  1  0.650571  0.756207  0.674833  1
  O  O476  1  0.000000  0.624271  0.593963  1
  O  O477  1  0.571155  0.000000  0.637948  1
  O  O478  1  0.571396  -0.000000  0.594023  1
  O  O479  1  0.929914  0.500220  0.638287  1
  O  O480  1  0.928244  0.500448  0.594386  1
  O  O481  1  0.572624  0.134146  0.615926  1
  O  O482  1  0.928156  0.635233  0.616361  1
  O  O483  1  0.928152  0.365444  0.616299  1
  O  O484  1  0.571895  0.864526  0.616027  1
  O  O485  1  0.500542  0.124179  0.637998  1
  O  O486  1  0.000000  0.376531  0.593915  1
  O  O487  1  0.500616  0.124137  0.593803  1
  O  O488  1  0.500080  0.876145  0.593794  1
  O  O489  1  0.090068  0.169464  0.761593  1
  O  O490  1  0.411065  0.668586  0.761461  1
  O  O491  1  0.412681  0.329154  0.761314  1
  O  O492  1  0.089841  0.829929  0.761634  1
  O  O493  1  0.098175  0.592188  0.679031  1
  O  O494  1  0.099290  0.092066  0.732678  1
  O  O495  1  0.404383  0.091941  0.679370  1
  O  O496  1  0.405278  0.592667  0.732338  1
  O  O497  1  0.405403  0.407748  0.732442  1
  O  O498  1  0.404463  0.907217  0.679502  1
  O  O499  1  0.097535  0.907681  0.732770  1
  O  O500  1  0.096123  0.407651  0.679006  1
  O  O501  1  0.151179  0.244295  0.737113  1
  O  O502  1  0.350667  0.742790  0.736861  1
  O  O503  1  0.351306  0.256961  0.736869  1
  O  O504  1  0.150873  0.756705  0.736919  1
  O  O505  1  0.051083  0.750942  0.677330  1
  O  O506  1  0.051294  0.250019  0.734497  1
  O  O507  1  0.450539  0.251235  0.678082  1
  O  O508  1  0.450593  0.752454  0.734609  1
  O  O509  1  0.450858  0.247957  0.733856  1
  O  O510  1  0.450923  0.748381  0.677103  1
  O  O511  1  0.050898  0.748491  0.734658  1
  O  O512  1  0.051111  0.247302  0.677110  1
  O  O513  1  0.004011  0.749282  0.705998  1
  O  O514  1  0.004348  0.250214  0.705806  1
  O  O515  1  0.497449  0.749537  0.705872  1
  O  O516  1  0.002443  0.901536  0.688376  1
  O  O517  1  0.499698  0.624075  0.773821  1
  O  O518  1  0.072002  0.000000  0.774128  1
  O  O519  1  0.429056  0.499188  0.774014  1
  O  O520  1  0.192405  0.400974  0.724385  1
  O  O521  1  0.192988  0.900827  0.687308  1
  O  O522  1  0.309415  0.900573  0.724149  1
  O  O523  1  0.309882  0.400508  0.687722  1
  O  O524  1  0.310188  0.598843  0.687685  1
  O  O525  1  0.309714  0.099131  0.724221  1
  O  O526  1  0.191934  0.099780  0.687489  1
  O  O527  1  0.191328  0.599616  0.724153  1
  O  O528  1  0.145195  0.497783  0.702038  1
  O  O529  1  0.142544  0.998212  0.708777  1
  O  O530  1  0.342832  -0.000000  0.699466  1
  O  O531  1  0.344629  0.499679  0.712263  1
  O  O532  1  0.245681  0.500382  0.704302  1
  O  O533  1  0.243958  0.000000  0.708008  1
  O  O534  1  0.182050  0.750543  0.705793  1
  O  O535  1  0.182256  0.250004  0.706029  1
  O  O536  1  0.319651  0.249719  0.705945  1
  O  O537  1  0.319569  0.750002  0.705854  1
  O  O538  1  0.250746  0.749590  0.728822  1
  O  O539  1  0.250869  0.250100  0.682964  1
  O  O540  1  0.251185  0.250164  0.729018  1
  O  O541  1  0.250934  0.748977  0.682815  1
  O  O542  1  0.044182  0.501425  0.700594  1
  O  O543  1  0.042166  0.001022  0.711947  1
  O  O544  1  0.442376  0.000000  0.704198  1
  O  O545  1  0.444238  0.499823  0.707768  1
  O  O546  1  0.002715  0.401299  0.723716  1
  O  O547  1  0.001096  0.124128  0.773676  1
  O  O548  1  -0.000000  0.876023  0.773713  1
  O  O549  1  0.001671  0.597985  0.723876  1
  O  O550  1  0.001647  0.097815  0.688228  1
  O  O551  1  0.587836  0.671697  0.761310  1
  O  O552  1  0.913156  0.170371  0.760917  1
  O  O553  1  0.912777  0.829913  0.761042  1
  O  O554  1  0.589314  0.330494  0.761472  1
  O  O555  1  0.597231  0.092616  0.679230  1
  O  O556  1  0.597232  0.591534  0.732751  1
  O  O557  1  0.905805  0.592570  0.679785  1
  O  O558  1  0.904799  0.092432  0.732030  1
  O  O559  1  0.904469  0.907624  0.732145  1
  O  O560  1  0.905147  0.407561  0.679672  1
  O  O561  1  0.595742  0.407091  0.732560  1
  O  O562  1  0.598696  0.908300  0.679186  1
  O  O563  1  0.650256  0.743222  0.736893  1
  O  O564  1  0.851298  0.243273  0.736720  1
  O  O565  1  0.850751  0.757034  0.736846  1
  O  O566  1  0.650891  0.257677  0.736942  1
  O  O567  1  0.550823  0.251830  0.677394  1
  O  O568  1  0.550845  0.750648  0.733530  1
  O  O569  1  0.950758  0.752614  0.678317  1
  O  O570  1  0.950992  0.251629  0.733461  1
  O  O571  1  0.950470  0.748282  0.733626  1
  O  O572  1  0.950734  0.247902  0.678195  1
  O  O573  1  0.551118  0.246660  0.734437  1
  O  O574  1  0.551187  0.750006  0.678306  1
  O  O575  1  0.503084  0.250589  0.705942  1
  O  O576  1  0.928101  0.865483  0.795539  1
  O  O577  1  0.928232  0.135282  0.795459  1
  O  O578  1  0.501168  0.401857  0.688054  1
  O  O579  1  0.571236  0.501136  0.773881  1
  O  O580  1  0.929982  0.000000  0.773543  1
  O  O581  1  0.571857  0.635861  0.795831  1
  O  O582  1  0.691857  0.900707  0.724416  1
  O  O583  1  0.691681  0.400386  0.687479  1
  O  O584  1  0.809789  0.400921  0.724164  1
  O  O585  1  0.809057  0.900423  0.687596  1
  O  O586  1  0.809214  0.099135  0.687580  1
  O  O587  1  0.809332  0.599402  0.724235  1
  O  O588  1  0.691338  0.599152  0.687549  1
  O  O589  1  0.692439  0.099751  0.724517  1
  O  O590  1  0.642336  0.001428  0.703117  1
  O  O591  1  0.645369  0.498812  0.709844  1
  O  O592  1  0.844700  0.500517  0.699773  1
  O  O593  1  0.842848  0.000000  0.712184  1
  O  O594  1  0.743778  -0.000000  0.703873  1
  O  O595  1  0.745645  0.499852  0.707403  1
  O  O596  1  0.682207  0.249686  0.705920  1
  O  O597  1  0.681888  0.750267  0.705894  1
  O  O598  1  0.818959  0.750150  0.705974  1
  O  O599  1  0.819265  0.249935  0.705878  1
  O  O600  1  0.750899  0.250579  0.728981  1
  O  O601  1  0.750660  0.749181  0.682865  1
  O  O602  1  0.750372  0.749916  0.729009  1
  O  O603  1  0.750781  0.250160  0.682827  1
  O  O604  1  0.541980  0.998862  0.700044  1
  O  O605  1  0.544209  0.501452  0.710917  1
  O  O606  1  0.944401  0.499089  0.704333  1
  O  O607  1  0.942637  0.000000  0.707354  1
  O  O608  1  0.501137  0.097820  0.723471  1
  O  O609  1  0.500627  0.598586  0.687942  1
  O  O610  1  0.500588  0.901473  0.723534  1
  O  O611  1  0.500585  0.376271  0.773816  1
  O  O612  1  0.572672  0.366203  0.795864  1
  O  O613  1  0.427793  0.633968  0.796003  1
  O  O614  1  0.072320  0.134943  0.796074  1
  O  O615  1  0.428612  0.364355  0.795945  1
  O  O616  1  0.072142  0.865281  0.796103  1
  Si  Si617  1  0.401745  0.499804  0.150681  1
  Si  Si618  1  0.401729  0.000000  0.181437  1
  Si  Si619  1  0.098352  0.000000  0.150680  1
  Si  Si620  1  0.304859  0.000000  0.157417  1
  Si  Si621  1  0.098325  0.500112  0.181442  1
  Si  Si622  1  0.096416  0.192495  0.130510  1
  Si  Si623  1  0.403113  0.692005  0.130429  1
  Si  Si624  1  0.403593  0.307516  0.130460  1
  Si  Si625  1  0.096300  0.807753  0.130495  1
  Si  Si626  1  0.060265  0.111470  0.095864  1
  Si  Si627  1  0.439350  0.610507  0.095830  1
  Si  Si628  1  0.439899  0.388161  0.095787  1
  Si  Si629  1  0.060097  0.889080  0.095882  1
  Si  Si630  1  0.192815  0.213678  0.184845  1
  Si  Si631  1  0.192723  0.713669  0.147271  1
  Si  Si632  1  0.306965  0.713831  0.184778  1
  Si  Si633  1  0.307081  0.213904  0.147327  1
  Si  Si634  1  0.306825  0.786420  0.147270  1
  Si  Si635  1  0.306926  0.286375  0.184843  1
  Si  Si636  1  0.192895  0.286294  0.147315  1
  Si  Si637  1  0.192798  0.786318  0.184799  1
  Si  Si638  1  0.194963  0.000000  0.174730  1
  Si  Si639  1  0.194923  0.500029  0.157383  1
  Si  Si640  1  0.304844  0.500031  0.174680  1
  Si  Si641  1  0.000000  0.500049  0.158163  1
  Si  Si642  1  0.000000  0.000000  0.173955  1
  Si  Si643  1  0.596906  0.692587  0.130317  1
  Si  Si644  1  0.903059  0.192106  0.130016  1
  Si  Si645  1  0.902951  0.807980  0.130040  1
  Si  Si646  1  0.597499  0.308200  0.130258  1
  Si  Si647  1  0.560746  0.611942  0.095668  1
  Si  Si648  1  0.938854  0.111633  0.095334  1
  Si  Si649  1  0.938688  0.889318  0.095406  1
  Si  Si650  1  0.561293  0.389607  0.095690  1
  Si  Si651  1  0.693313  0.713746  0.184838  1
  Si  Si652  1  0.693431  0.213595  0.147294  1
  Si  Si653  1  0.807476  0.213639  0.184797  1
  Si  Si654  1  0.807388  0.713634  0.147325  1
  Si  Si655  1  0.807555  0.286564  0.147312  1
  Si  Si656  1  0.807463  0.786554  0.184815  1
  Si  Si657  1  0.693179  0.786182  0.147343  1
  Si  Si658  1  0.693297  0.286365  0.184768  1
  Si  Si659  1  0.695294  0.500136  0.174625  1
  Si  Si660  1  0.695324  0.000000  0.157488  1
  Si  Si661  1  0.805479  0.000000  0.174603  1
  Si  Si662  1  0.805467  0.500086  0.157523  1
  Si  Si663  1  0.598460  0.500297  0.150588  1
  Si  Si664  1  0.598524  0.000000  0.181535  1
  Si  Si665  1  0.901615  -0.000000  0.150343  1
  Si  Si666  1  0.901604  0.500055  0.181783  1
  Si  Si667  1  0.000000  0.211876  0.184911  1
  Si  Si668  1  0.000000  0.711875  0.147215  1
  Si  Si669  1  0.500859  0.212140  0.147210  1
  Si  Si670  1  0.500535  0.711967  0.184901  1
  Si  Si671  1  0.500451  0.287941  0.184902  1
  Si  Si672  1  0.000000  0.788211  0.184876  1
  Si  Si673  1  0.000000  0.288151  0.147246  1
  Si  Si674  1  0.500121  0.788169  0.147226  1
  Si  Si675  1  0.500253  0.000000  0.158089  1
  Si  Si676  1  0.500223  0.499938  0.174052  1
  Si  Si677  1  0.061622  0.388951  0.275488  1
  Si  Si678  1  0.060159  0.389118  0.236240  1
  Si  Si679  1  0.439133  0.889895  0.275514  1
  Si  Si680  1  0.439383  0.889610  0.236248  1
  Si  Si681  1  0.098240  0.692207  0.310063  1
  Si  Si682  1  0.096314  0.692549  0.201601  1
  Si  Si683  1  0.404090  0.192103  0.310421  1
  Si  Si684  1  0.403251  0.192281  0.201709  1
  Si  Si685  1  0.403409  0.807783  0.201630  1
  Si  Si686  1  0.403624  0.808209  0.310153  1
  Si  Si687  1  0.096406  0.307778  0.201631  1
  Si  Si688  1  0.097995  0.307675  0.310046  1
  Si  Si689  1  0.061625  0.611309  0.275499  1
  Si  Si690  1  0.060185  0.611513  0.236247  1
  Si  Si691  1  0.439808  0.112161  0.275636  1
  Si  Si692  1  0.439876  0.111957  0.236356  1
  Si  Si693  1  0.560516  0.888216  0.275753  1
  Si  Si694  1  0.560778  0.888323  0.236488  1
  Si  Si695  1  0.597758  0.192334  0.310171  1
  Si  Si696  1  0.597191  0.192219  0.201796  1
  Si  Si697  1  0.904524  0.692453  0.310748  1
  Si  Si698  1  0.902981  0.692094  0.202106  1
  Si  Si699  1  0.903044  0.307947  0.202087  1
  Si  Si700  1  0.904362  0.307673  0.310636  1
  Si  Si701  1  0.597241  0.807839  0.201871  1
  Si  Si702  1  0.597589  0.807906  0.310364  1
  Si  Si703  1  0.561192  0.110604  0.275651  1
  Si  Si704  1  0.561272  0.110659  0.236397  1
  Si  Si705  1  0.940242  0.611409  0.276044  1
  Si  Si706  1  0.938779  0.611548  0.236788  1
  Si  Si707  1  0.938752  0.389244  0.236730  1
  Si  Si708  1  0.940236  0.389059  0.275987  1
  Si  Si709  1  0.496646  0.000000  0.353586  1
  Si  Si710  1  0.002230  0.287767  0.364756  1
  Si  Si711  1  0.001980  0.788137  0.327331  1
  Si  Si712  1  0.001791  0.211229  0.327151  1
  Si  Si713  1  0.497644  0.500330  0.338102  1
  Si  Si714  1  0.098628  0.191773  0.381956  1
  Si  Si715  1  0.403603  0.691901  0.381801  1
  Si  Si716  1  0.404466  0.307672  0.381621  1
  Si  Si717  1  0.098095  0.807755  0.381969  1
  Si  Si718  1  0.061687  0.111153  0.416510  1
  Si  Si719  1  0.439084  0.610394  0.416464  1
  Si  Si720  1  0.439861  0.388134  0.416403  1
  Si  Si721  1  0.061559  0.888815  0.416528  1
  Si  Si722  1  0.193633  0.713749  0.364642  1
  Si  Si723  1  0.193802  0.214002  0.327332  1
  Si  Si724  1  0.308125  0.213349  0.364813  1
  Si  Si725  1  0.308021  0.712982  0.327221  1
  Si  Si726  1  0.307939  0.286374  0.327307  1
  Si  Si727  1  0.307753  0.786373  0.364707  1
  Si  Si728  1  0.194106  0.786537  0.327122  1
  Si  Si729  1  0.194191  0.286746  0.364865  1
  Si  Si730  1  0.193075  0.500005  0.354567  1
  Si  Si731  1  0.192469  -0.000000  0.337301  1
  Si  Si732  1  0.301889  0.000000  0.354684  1
  Si  Si733  1  0.303093  0.499758  0.337465  1
  Si  Si734  1  0.096193  0.499919  0.330336  1
  Si  Si735  1  0.095737  0.000000  0.361619  1
  Si  Si736  1  0.397872  0.000000  0.330605  1
  Si  Si737  1  0.399424  0.499996  0.361418  1
  Si  Si738  1  0.001598  0.711538  0.364935  1
  Si  Si739  1  0.501208  0.288339  0.327199  1
  Si  Si740  1  0.500243  0.712158  0.327119  1
  Si  Si741  1  0.501348  0.211157  0.364778  1
  Si  Si742  1  0.998347  0.499814  0.353905  1
  Si  Si743  1  0.597142  0.692298  0.381640  1
  Si  Si744  1  0.904539  0.192290  0.381279  1
  Si  Si745  1  0.904053  0.807823  0.381412  1
  Si  Si746  1  0.597637  0.307504  0.381842  1
  Si  Si747  1  0.560471  0.612211  0.416302  1
  Si  Si748  1  0.940305  0.111393  0.415981  1
  Si  Si749  1  0.940173  0.889026  0.416049  1
  Si  Si750  1  0.561252  0.389830  0.416341  1
  Si  Si751  1  0.693901  0.214039  0.364834  1
  Si  Si752  1  0.693550  0.713300  0.327262  1
  Si  Si753  1  0.807417  0.713568  0.364826  1
  Si  Si754  1  0.807723  0.213343  0.327226  1
  Si  Si755  1  0.807562  0.786198  0.327285  1
  Si  Si756  1  0.807912  0.286762  0.364730  1
  Si  Si757  1  0.693726  0.286191  0.327247  1
  Si  Si758  1  0.693417  0.786469  0.364781  1
  Si  Si759  1  0.692286  0.000000  0.354779  1
  Si  Si760  1  0.692948  0.499698  0.337393  1
  Si  Si761  1  0.802804  0.500210  0.354648  1
  Si  Si762  1  0.801571  0.000000  0.337271  1
  Si  Si763  1  0.595430  0.000000  0.330522  1
  Si  Si764  1  0.595890  0.499686  0.361530  1
  Si  Si765  1  0.899556  0.499916  0.330882  1
  Si  Si766  1  0.898045  0.000000  0.361138  1
  Si  Si767  1  0.997333  0.000000  0.338409  1
  Si  Si768  1  0.500032  0.788030  0.364759  1
  Si  Si769  1  0.401745  0.499804  0.510581  1
  Si  Si770  1  0.401729  0.000000  0.541337  1
  Si  Si771  1  0.098352  0.000000  0.510580  1
  Si  Si772  1  0.304859  0.000000  0.517317  1
  Si  Si773  1  0.098325  0.500112  0.541342  1
  Si  Si774  1  0.096416  0.192495  0.490410  1
  Si  Si775  1  0.403113  0.692005  0.490329  1
  Si  Si776  1  0.403593  0.307516  0.490360  1
  Si  Si777  1  0.096300  0.807753  0.490395  1
  Si  Si778  1  0.060265  0.111470  0.455764  1
  Si  Si779  1  0.439350  0.610507  0.455729  1
  Si  Si780  1  0.439899  0.388161  0.455687  1
  Si  Si781  1  0.060097  0.889080  0.455782  1
  Si  Si782  1  0.192815  0.213678  0.544745  1
  Si  Si783  1  0.192723  0.713669  0.507171  1
  Si  Si784  1  0.306965  0.713831  0.544678  1
  Si  Si785  1  0.307081  0.213904  0.507227  1
  Si  Si786  1  0.306825  0.786420  0.507170  1
  Si  Si787  1  0.306926  0.286375  0.544743  1
  Si  Si788  1  0.192895  0.286294  0.507215  1
  Si  Si789  1  0.192798  0.786318  0.544698  1
  Si  Si790  1  0.194963  -0.000000  0.534629  1
  Si  Si791  1  0.194923  0.500029  0.517283  1
  Si  Si792  1  0.304844  0.500031  0.534579  1
  Si  Si793  1  -0.000000  0.500049  0.518063  1
  Si  Si794  1  0.000000  0.000000  0.533855  1
  Si  Si795  1  0.596906  0.692587  0.490217  1
  Si  Si796  1  0.903059  0.192106  0.489916  1
  Si  Si797  1  0.902951  0.807980  0.489940  1
  Si  Si798  1  0.597499  0.308200  0.490158  1
  Si  Si799  1  0.560746  0.611942  0.455567  1
  Si  Si800  1  0.938854  0.111633  0.455234  1
  Si  Si801  1  0.938688  0.889318  0.455305  1
  Si  Si802  1  0.561293  0.389607  0.455589  1
  Si  Si803  1  0.693313  0.713746  0.544738  1
  Si  Si804  1  0.693431  0.213595  0.507194  1
  Si  Si805  1  0.807476  0.213639  0.544697  1
  Si  Si806  1  0.807388  0.713634  0.507225  1
  Si  Si807  1  0.807555  0.286564  0.507211  1
  Si  Si808  1  0.807463  0.786554  0.544714  1
  Si  Si809  1  0.693179  0.786182  0.507242  1
  Si  Si810  1  0.693297  0.286365  0.544668  1
  Si  Si811  1  0.695294  0.500136  0.534524  1
  Si  Si812  1  0.695324  0.000000  0.517387  1
  Si  Si813  1  0.805479  0.000000  0.534503  1
  Si  Si814  1  0.805467  0.500086  0.517423  1
  Si  Si815  1  0.598460  0.500297  0.510487  1
  Si  Si816  1  0.598524  0.000000  0.541434  1
  Si  Si817  1  0.901615  0.000000  0.510243  1
  Si  Si818  1  0.901604  0.500055  0.541683  1
  Si  Si819  1  0.000000  0.211876  0.544810  1
  Si  Si820  1  0.000000  0.711875  0.507115  1
  Si  Si821  1  0.500859  0.212140  0.507110  1
  Si  Si822  1  0.500535  0.711967  0.544801  1
  Si  Si823  1  0.500451  0.287941  0.544802  1
  Si  Si824  1  0.000000  0.788211  0.544775  1
  Si  Si825  1  0.000000  0.288151  0.507146  1
  Si  Si826  1  0.500121  0.788169  0.507126  1
  Si  Si827  1  0.500253  0.000000  0.517989  1
  Si  Si828  1  0.500223  0.499938  0.533951  1
  Si  Si829  1  0.061622  0.388951  0.635388  1
  Si  Si830  1  0.060159  0.389118  0.596139  1
  Si  Si831  1  0.439133  0.889895  0.635414  1
  Si  Si832  1  0.439383  0.889610  0.596148  1
  Si  Si833  1  0.098240  0.692207  0.669963  1
  Si  Si834  1  0.096314  0.692549  0.561501  1
  Si  Si835  1  0.404090  0.192103  0.670321  1
  Si  Si836  1  0.403251  0.192281  0.561608  1
  Si  Si837  1  0.403409  0.807783  0.561530  1
  Si  Si838  1  0.403624  0.808209  0.670053  1
  Si  Si839  1  0.096406  0.307778  0.561531  1
  Si  Si840  1  0.097995  0.307675  0.669946  1
  Si  Si841  1  0.061625  0.611309  0.635399  1
  Si  Si842  1  0.060185  0.611513  0.596147  1
  Si  Si843  1  0.439808  0.112161  0.635535  1
  Si  Si844  1  0.439876  0.111957  0.596256  1
  Si  Si845  1  0.560516  0.888216  0.635653  1
  Si  Si846  1  0.560778  0.888323  0.596388  1
  Si  Si847  1  0.597758  0.192334  0.670071  1
  Si  Si848  1  0.597191  0.192219  0.561696  1
  Si  Si849  1  0.904524  0.692453  0.670648  1
  Si  Si850  1  0.902981  0.692094  0.562005  1
  Si  Si851  1  0.903044  0.307947  0.561987  1
  Si  Si852  1  0.904362  0.307673  0.670536  1
  Si  Si853  1  0.597241  0.807839  0.561771  1
  Si  Si854  1  0.597589  0.807906  0.670264  1
  Si  Si855  1  0.561192  0.110604  0.635551  1
  Si  Si856  1  0.561272  0.110659  0.596296  1
  Si  Si857  1  0.940242  0.611409  0.635944  1
  Si  Si858  1  0.938779  0.611548  0.596687  1
  Si  Si859  1  0.938752  0.389244  0.596629  1
  Si  Si860  1  0.940236  0.389059  0.635886  1
  Si  Si861  1  0.496646  -0.000000  0.713486  1
  Si  Si862  1  0.002230  0.287767  0.724655  1
  Si  Si863  1  0.001980  0.788137  0.687231  1
  Si  Si864  1  0.001791  0.211229  0.687051  1
  Si  Si865  1  0.497644  0.500330  0.698002  1
  Si  Si866  1  0.098628  0.191773  0.741856  1
  Si  Si867  1  0.403603  0.691901  0.741700  1
  Si  Si868  1  0.404466  0.307672  0.741521  1
  Si  Si869  1  0.098095  0.807755  0.741869  1
  Si  Si870  1  0.061687  0.111153  0.776409  1
  Si  Si871  1  0.439084  0.610394  0.776363  1
  Si  Si872  1  0.439861  0.388134  0.776302  1
  Si  Si873  1  0.061559  0.888815  0.776427  1
  Si  Si874  1  0.193633  0.713749  0.724541  1
  Si  Si875  1  0.193802  0.214002  0.687232  1
  Si  Si876  1  0.308125  0.213349  0.724713  1
  Si  Si877  1  0.308021  0.712982  0.687121  1
  Si  Si878  1  0.307939  0.286374  0.687207  1
  Si  Si879  1  0.307753  0.786373  0.724606  1
  Si  Si880  1  0.194106  0.786537  0.687021  1
  Si  Si881  1  0.194191  0.286746  0.724765  1
  Si  Si882  1  0.193075  0.500005  0.714467  1
  Si  Si883  1  0.192469  0.000000  0.697201  1
  Si  Si884  1  0.301889  0.000000  0.714584  1
  Si  Si885  1  0.303093  0.499758  0.697365  1
  Si  Si886  1  0.096193  0.499919  0.690236  1
  Si  Si887  1  0.095737  0.000000  0.721518  1
  Si  Si888  1  0.397872  0.000000  0.690505  1
  Si  Si889  1  0.399424  0.499996  0.721317  1
  Si  Si890  1  0.001598  0.711538  0.724835  1
  Si  Si891  1  0.501208  0.288339  0.687098  1
  Si  Si892  1  0.500243  0.712158  0.687019  1
  Si  Si893  1  0.501348  0.211157  0.724678  1
  Si  Si894  1  0.998347  0.499814  0.713805  1
  Si  Si895  1  0.597142  0.692298  0.741540  1
  Si  Si896  1  0.904539  0.192290  0.741178  1
  Si  Si897  1  0.904053  0.807823  0.741312  1
  Si  Si898  1  0.597637  0.307504  0.741742  1
  Si  Si899  1  0.560471  0.612211  0.776201  1
  Si  Si900  1  0.940305  0.111393  0.775881  1
  Si  Si901  1  0.940173  0.889026  0.775948  1
  Si  Si902  1  0.561252  0.389830  0.776240  1
  Si  Si903  1  0.693901  0.214039  0.724734  1
  Si  Si904  1  0.693550  0.713300  0.687161  1
  Si  Si905  1  0.807417  0.713568  0.724726  1
  Si  Si906  1  0.807723  0.213343  0.687126  1
  Si  Si907  1  0.807562  0.786198  0.687184  1
  Si  Si908  1  0.807912  0.286762  0.724630  1
  Si  Si909  1  0.693726  0.286191  0.687147  1
  Si  Si910  1  0.693417  0.786469  0.724681  1
  Si  Si911  1  0.692286  0.000000  0.714679  1
  Si  Si912  1  0.692948  0.499698  0.697292  1
  Si  Si913  1  0.802804  0.500210  0.714548  1
  Si  Si914  1  0.801571  0.000000  0.697171  1
  Si  Si915  1  0.595430  0.000000  0.690422  1
  Si  Si916  1  0.595890  0.499686  0.721429  1
  Si  Si917  1  0.899556  0.499916  0.690782  1
  Si  Si918  1  0.898045  0.000000  0.721037  1
  Si  Si919  1  0.997333  0.000000  0.698308  1
  Si  Si920  1  0.500032  0.788030  0.724659  1
  H  H921  1  0.928101  0.865483  0.064198  1
  H  H922  1  0.928232  0.135282  0.064119  1
  H  H923  1  0.571857  0.635861  0.064490  1
  H  H924  1  0.572672  0.366203  0.064523  1
  H  H925  1  0.427793  0.633968  0.064662  1
  H  H926  1  0.072320  0.134943  0.064734  1
  H  H927  1  0.428612  0.364355  0.064604  1
  H  H928  1  0.072142  0.865281  0.064762  1
  H  H929  1  0.928101  0.865483  0.807080  1
  H  H930  1  0.928232  0.135282  0.807001  1
  H  H931  1  0.571857  0.635861  0.807372  1
  H  H932  1  0.572672  0.366203  0.807405  1
  H  H933  1  0.427793  0.633968  0.807544  1
  H  H934  1  0.072320  0.134943  0.807616  1
  H  H935  1  0.428612  0.364355  0.807486  1
  H  H936  1  0.072142  0.865281  0.807644  1
