# generated using pymatgen
data_Si56H2O113
_symmetry_space_group_name_H-M   'P 1'
_cell_length_a   25.48081259
_cell_length_b   13.88888375
_cell_length_c   106.00896815
_cell_angle_alpha   90.00000000
_cell_angle_beta   90.00000000
_cell_angle_gamma   90.00000000
_symmetry_Int_Tables_number   1
_chemical_formula_structural   Si56H2O113
_chemical_formula_sum   'Si448 H16 O904'
_cell_volume   37516.5784833
_cell_formula_units_Z   8
loop_
 _symmetry_equiv_pos_site_id
 _symmetry_equiv_pos_as_xyz
  1  'x, y, z'
loop_
 _atom_site_type_symbol
 _atom_site_label
 _atom_site_symmetry_multiplicity
 _atom_site_fract_x
 _atom_site_fract_y
 _atom_site_fract_z
 _atom_site_occupancy
  O  O1  1  0.571857  0.635861  0.055656  1
  O  O2  1  0.572672  0.366203  0.055680  1
  O  O3  1  0.087549  0.170949  0.081201  1
  O  O4  1  0.411670  0.669817  0.081143  1
  O  O5  1  0.412361  0.329144  0.081156  1
  O  O6  1  0.087407  0.829434  0.081195  1
  O  O7  1  0.095008  0.092322  0.102345  1
  O  O8  1  0.094979  0.592352  0.141416  1
  O  O9  1  0.404113  0.591989  0.102324  1
  O  O10  1  0.403688  0.091824  0.141556  1
  O  O11  1  0.405051  0.907397  0.141298  1
  O  O12  1  0.404852  0.407549  0.102346  1
  O  O13  1  0.095119  0.407927  0.141428  1
  O  O14  1  0.095112  0.907918  0.102336  1
  O  O15  1  0.149915  0.242062  0.099143  1
  O  O16  1  0.350001  0.742857  0.099106  1
  O  O17  1  0.350290  0.257356  0.099144  1
  O  O18  1  0.149721  0.757861  0.099115  1
  O  O19  1  0.050279  0.252153  0.101482  1
  O  O20  1  0.050150  0.752111  0.142274  1
  O  O21  1  0.449681  0.751077  0.101311  1
  O  O22  1  0.449747  0.250747  0.142329  1
  O  O23  1  0.449881  0.747931  0.142485  1
  O  O24  1  0.449949  0.248087  0.101384  1
  O  O25  1  0.050219  0.248242  0.142306  1
  O  O26  1  0.050108  0.748269  0.101468  1
  O  O27  1  0.427793  0.633968  0.055782  1
  O  O28  1  0.499435  0.901652  0.108691  1
  O  O29  1  0.429270  0.499220  0.071936  1
  O  O30  1  0.428612  0.364355  0.055740  1
  O  O31  1  0.190289  0.900521  0.135378  1
  O  O32  1  0.190260  0.400494  0.108377  1
  O  O33  1  0.308524  0.400644  0.135400  1
  O  O34  1  0.308535  0.900701  0.108351  1
  O  O35  1  0.308782  0.099634  0.108383  1
  O  O36  1  0.308822  0.599562  0.135359  1
  O  O37  1  0.190174  0.599451  0.108350  1
  O  O38  1  0.190208  0.099471  0.135406  1
  O  O39  1  0.151312  0.000000  0.117897  1
  O  O40  1  0.151266  0.500135  0.125859  1
  O  O41  1  0.349525  0.499484  0.118145  1
  O  O42  1  0.349602  0.000000  0.125583  1
  O  O43  1  0.250589  0.000000  0.122223  1
  O  O44  1  0.250545  0.500287  0.121537  1
  O  O45  1  0.181350  0.250003  0.121894  1
  O  O46  1  0.181242  0.750015  0.121864  1
  O  O47  1  0.318526  0.750109  0.121852  1
  O  O48  1  0.318678  0.250072  0.121905  1
  O  O49  1  0.249977  0.249463  0.138838  1
  O  O50  1  0.249856  0.749603  0.104918  1
  O  O51  1  0.249946  0.750388  0.138798  1
  O  O52  1  0.250085  0.250589  0.104959  1
  O  O53  1  0.050637  0.000000  0.119646  1
  O  O54  1  0.050600  0.499913  0.124121  1
  O  O55  1  0.449712  0.500663  0.119551  1
  O  O56  1  0.449844  0.002369  0.124259  1
  O  O57  1  0.499936  0.401462  0.135109  1
  O  O58  1  0.588660  0.670468  0.081053  1
  O  O59  1  0.910792  0.170094  0.080795  1
  O  O60  1  0.910641  0.830532  0.080830  1
  O  O61  1  0.589391  0.330694  0.081016  1
  O  O62  1  0.595077  0.592848  0.102329  1
  O  O63  1  0.595229  0.092717  0.141375  1
  O  O64  1  0.904755  0.092162  0.102054  1
  O  O65  1  0.904821  0.592190  0.141701  1
  O  O66  1  0.904990  0.407696  0.141652  1
  O  O67  1  0.904998  0.907654  0.102133  1
  O  O68  1  0.596166  0.907975  0.141579  1
  O  O69  1  0.596194  0.408103  0.102243  1
  O  O70  1  0.650048  0.742834  0.099135  1
  O  O71  1  0.850126  0.242457  0.099032  1
  O  O72  1  0.849918  0.757923  0.099044  1
  O  O73  1  0.650361  0.256990  0.099087  1
  O  O74  1  0.550075  0.752769  0.100915  1
  O  O75  1  0.949982  0.251869  0.100734  1
  O  O76  1  0.949874  0.752018  0.143041  1
  O  O77  1  0.949931  0.247852  0.143053  1
  O  O78  1  0.949816  0.747773  0.100703  1
  O  O79  1  0.550277  0.748546  0.142818  1
  O  O80  1  0.550349  0.248803  0.100841  1
  O  O81  1  0.501847  0.750002  0.121880  1
  O  O82  1  0.502650  0.250153  0.121875  1
  O  O83  1  0.996800  0.750019  0.121872  1
  O  O84  1  0.501156  0.098630  0.108668  1
  O  O85  1  -0.000000  0.901670  0.135038  1
  O  O86  1  -0.000000  0.401629  0.108718  1
  O  O87  1  0.500036  0.624043  0.071975  1
  O  O88  1  0.000000  0.598395  0.108698  1
  O  O89  1  0.571390  0.500902  0.071814  1
  O  O90  1  0.691419  0.400628  0.135329  1
  O  O91  1  0.691466  0.900450  0.108417  1
  O  O92  1  0.810317  0.900735  0.135333  1
  O  O93  1  0.810281  0.400739  0.108441  1
  O  O94  1  0.810225  0.599472  0.108448  1
  O  O95  1  0.810187  0.099458  0.135321  1
  O  O96  1  0.691681  0.099323  0.108396  1
  O  O97  1  0.691701  0.599464  0.135380  1
  O  O98  1  0.650667  0.500757  0.118085  1
  O  O99  1  0.650721  0.000000  0.125677  1
  O  O100  1  0.848806  0.000000  0.117719  1
  O  O101  1  0.848762  0.500055  0.126057  1
  O  O102  1  0.749655  0.499926  0.121531  1
  O  O103  1  0.749681  0.000000  0.122228  1
  O  O104  1  0.681412  0.750019  0.121908  1
  O  O105  1  0.681564  0.249999  0.121856  1
  O  O106  1  0.819263  0.250056  0.121877  1
  O  O107  1  0.819139  0.750066  0.121887  1
  O  O108  1  0.750240  0.750957  0.138789  1
  O  O109  1  0.750378  0.250705  0.104981  1
  O  O110  1  0.750277  0.249489  0.138756  1
  O  O111  1  0.750140  0.749187  0.105007  1
  O  O112  1  0.550546  0.498911  0.119491  1
  O  O113  1  0.550595  0.998246  0.124278  1
  O  O114  1  0.949324  0.000000  0.119393  1
  O  O115  1  0.949288  0.500368  0.124364  1
  O  O116  1  0.550157  0.252376  0.142940  1
  O  O117  1  0.996970  0.250040  0.121896  1
  O  O118  1  0.500651  0.376045  0.071968  1
  O  O119  1  0.500690  0.598472  0.135088  1
  O  O120  1  0.000000  0.098399  0.135066  1
  O  O121  1  0.089787  0.670180  0.213279  1
  O  O122  1  0.087457  0.671018  0.162554  1
  O  O123  1  0.412531  0.170903  0.213516  1
  O  O124  1  0.412258  0.171083  0.162644  1
  O  O125  1  0.411760  0.830401  0.162571  1
  O  O126  1  0.410978  0.831834  0.213345  1
  O  O127  1  0.087495  0.329528  0.162567  1
  O  O128  1  0.089869  0.329875  0.213251  1
  O  O129  1  0.150949  0.744013  0.231325  1
  O  O130  1  0.149794  0.742186  0.144616  1
  O  O131  1  0.350964  0.242985  0.231489  1
  O  O132  1  0.350144  0.243206  0.144675  1
  O  O133  1  0.350141  0.757555  0.144590  1
  O  O134  1  0.350925  0.756441  0.231408  1
  O  O135  1  0.149840  0.257959  0.144645  1
  O  O136  1  0.151003  0.257659  0.231479  1
  O  O137  1  0.001034  0.624058  0.204397  1
  O  O138  1  0.499743  0.876190  0.204308  1
  O  O139  1  0.072079  0.500127  0.204052  1
  O  O140  1  0.070512  0.500314  0.171760  1
  O  O141  1  0.429098  0.001069  0.204146  1
  O  O142  1  0.429279  0.000000  0.171820  1
  O  O143  1  0.072231  0.635081  0.187920  1
  O  O144  1  0.428557  0.135821  0.188035  1
  O  O145  1  0.427852  0.866211  0.187952  1
  O  O146  1  0.072179  0.365353  0.187907  1
  O  O147  1  0.001013  0.376215  0.204376  1
  O  O148  1  0.589219  0.169764  0.213381  1
  O  O149  1  0.589291  0.169400  0.162696  1
  O  O150  1  0.913089  0.670528  0.213789  1
  O  O151  1  0.910691  0.669974  0.162967  1
  O  O152  1  0.910716  0.330425  0.162942  1
  O  O153  1  0.912961  0.329778  0.213714  1
  O  O154  1  0.588778  0.829610  0.162763  1
  O  O155  1  0.588028  0.828943  0.213517  1
  O  O156  1  0.650725  0.243239  0.231411  1
  O  O157  1  0.650218  0.242793  0.144613  1
  O  O158  1  0.851064  0.742567  0.231628  1
  O  O159  1  0.849994  0.742292  0.144735  1
  O  O160  1  0.850032  0.257787  0.144726  1
  O  O161  1  0.851086  0.256873  0.231536  1
  O  O162  1  0.650198  0.756881  0.144695  1
  O  O163  1  0.650571  0.756207  0.231393  1
  O  O164  1  0.000000  0.624271  0.171905  1
  O  O165  1  0.571155  0.000000  0.204260  1
  O  O166  1  0.571396  0.000000  0.171948  1
  O  O167  1  0.929914  0.500220  0.204510  1
  O  O168  1  0.928244  0.500448  0.172216  1
  O  O169  1  0.572624  0.134146  0.188061  1
  O  O170  1  0.928156  0.635233  0.188381  1
  O  O171  1  0.928152  0.365444  0.188335  1
  O  O172  1  0.571895  0.864526  0.188135  1
  O  O173  1  0.500542  0.124179  0.204297  1
  O  O174  1  -0.000000  0.376531  0.171869  1
  O  O175  1  0.500616  0.124137  0.171787  1
  O  O176  1  0.500080  0.876145  0.171781  1
  O  O177  1  0.090068  0.169464  0.295214  1
  O  O178  1  0.411065  0.668586  0.295117  1
  O  O179  1  0.412681  0.329154  0.295009  1
  O  O180  1  0.089841  0.829929  0.295244  1
  O  O181  1  0.098175  0.592188  0.234481  1
  O  O182  1  0.099290  0.092066  0.273944  1
  O  O183  1  0.404383  0.091941  0.234730  1
  O  O184  1  0.405278  0.592667  0.273694  1
  O  O185  1  0.405403  0.407748  0.273770  1
  O  O186  1  0.404463  0.907217  0.234827  1
  O  O187  1  0.097535  0.907681  0.274012  1
  O  O188  1  0.096123  0.407651  0.234463  1
  O  O189  1  0.151179  0.244295  0.277207  1
  O  O190  1  0.350667  0.742790  0.277021  1
  O  O191  1  0.351306  0.256961  0.277026  1
  O  O192  1  0.150873  0.756705  0.277064  1
  O  O193  1  0.051083  0.750942  0.233229  1
  O  O194  1  0.051294  0.250019  0.275282  1
  O  O195  1  0.450539  0.251235  0.233783  1
  O  O196  1  0.450593  0.752454  0.275364  1
  O  O197  1  0.450858  0.247957  0.274811  1
  O  O198  1  0.450923  0.748381  0.233062  1
  O  O199  1  0.050898  0.748491  0.275401  1
  O  O200  1  0.051111  0.247302  0.233068  1
  O  O201  1  0.004011  0.749282  0.254318  1
  O  O202  1  0.004348  0.250214  0.254176  1
  O  O203  1  0.497449  0.749537  0.254225  1
  O  O204  1  0.002443  0.901536  0.241355  1
  O  O205  1  0.499698  0.624075  0.304209  1
  O  O206  1  0.072002  0.000000  0.304435  1
  O  O207  1  0.429056  0.499188  0.304351  1
  O  O208  1  0.192405  0.400974  0.267843  1
  O  O209  1  0.192988  0.900827  0.240570  1
  O  O210  1  0.309415  0.900573  0.267670  1
  O  O211  1  0.309882  0.400508  0.240874  1
  O  O212  1  0.310188  0.598843  0.240847  1
  O  O213  1  0.309714  0.099131  0.267723  1
  O  O214  1  0.191934  0.099780  0.240703  1
  O  O215  1  0.191328  0.599616  0.267673  1
  O  O216  1  0.145195  0.497783  0.251405  1
  O  O217  1  0.142544  0.998212  0.256362  1
  O  O218  1  0.342832  0.000000  0.249513  1
  O  O219  1  0.344629  0.499679  0.258927  1
  O  O220  1  0.245681  0.500382  0.253070  1
  O  O221  1  0.243958  0.000000  0.255796  1
  O  O222  1  0.182050  0.750543  0.254167  1
  O  O223  1  0.182256  0.250004  0.254341  1
  O  O224  1  0.319651  0.249719  0.254279  1
  O  O225  1  0.319569  0.750002  0.254212  1
  O  O226  1  0.250746  0.749590  0.271108  1
  O  O227  1  0.250869  0.250100  0.237374  1
  O  O228  1  0.251185  0.250164  0.271251  1
  O  O229  1  0.250934  0.748977  0.237264  1
  O  O230  1  0.044182  0.501425  0.250343  1
  O  O231  1  0.042166  0.001022  0.258694  1
  O  O232  1  0.442376  0.000000  0.252994  1
  O  O233  1  0.444238  0.499823  0.255620  1
  O  O234  1  0.002715  0.401299  0.267352  1
  O  O235  1  0.001096  0.124128  0.304102  1
  O  O236  1  -0.000000  0.876023  0.304129  1
  O  O237  1  0.001671  0.597985  0.267469  1
  O  O238  1  0.001647  0.097815  0.241246  1
  O  O239  1  0.587836  0.671697  0.295005  1
  O  O240  1  0.913156  0.170371  0.294716  1
  O  O241  1  0.912777  0.829913  0.294808  1
  O  O242  1  0.589314  0.330494  0.295125  1
  O  O243  1  0.597231  0.092616  0.234628  1
  O  O244  1  0.597232  0.591534  0.273998  1
  O  O245  1  0.905805  0.592570  0.235036  1
  O  O246  1  0.904799  0.092432  0.273467  1
  O  O247  1  0.904469  0.907624  0.273551  1
  O  O248  1  0.905147  0.407561  0.234952  1
  O  O249  1  0.595742  0.407091  0.273857  1
  O  O250  1  0.598696  0.908300  0.234595  1
  O  O251  1  0.650256  0.743222  0.277045  1
  O  O252  1  0.851298  0.243273  0.276917  1
  O  O253  1  0.850751  0.757034  0.277010  1
  O  O254  1  0.650891  0.257677  0.277080  1
  O  O255  1  0.550823  0.251830  0.233277  1
  O  O256  1  0.550845  0.750648  0.274570  1
  O  O257  1  0.950758  0.752614  0.233956  1
  O  O258  1  0.950992  0.251629  0.274520  1
  O  O259  1  0.950470  0.748282  0.274641  1
  O  O260  1  0.950734  0.247902  0.233866  1
  O  O261  1  0.551118  0.246660  0.275238  1
  O  O262  1  0.551187  0.750006  0.233947  1
  O  O263  1  0.503084  0.250589  0.254277  1
  O  O264  1  0.928101  0.865483  0.320184  1
  O  O265  1  0.928232  0.135282  0.320126  1
  O  O266  1  0.501168  0.401857  0.241118  1
  O  O267  1  0.571236  0.501136  0.304253  1
  O  O268  1  0.929982  0.000000  0.304004  1
  O  O269  1  0.571857  0.635861  0.320399  1
  O  O270  1  0.691857  0.900707  0.267866  1
  O  O271  1  0.691681  0.400386  0.240695  1
  O  O272  1  0.809789  0.400921  0.267681  1
  O  O273  1  0.809057  0.900423  0.240782  1
  O  O274  1  0.809214  0.099135  0.240770  1
  O  O275  1  0.809332  0.599402  0.267733  1
  O  O276  1  0.691338  0.599152  0.240747  1
  O  O277  1  0.692439  0.099751  0.267940  1
  O  O278  1  0.642336  0.001428  0.252199  1
  O  O279  1  0.645369  0.498812  0.257147  1
  O  O280  1  0.844700  0.500517  0.249739  1
  O  O281  1  0.842848  0.000000  0.258869  1
  O  O282  1  0.743778  0.000000  0.252755  1
  O  O283  1  0.745645  0.499852  0.255351  1
  O  O284  1  0.682207  0.249686  0.254261  1
  O  O285  1  0.681888  0.750267  0.254242  1
  O  O286  1  0.818959  0.750150  0.254300  1
  O  O287  1  0.819265  0.249935  0.254230  1
  O  O288  1  0.750899  0.250579  0.271224  1
  O  O289  1  0.750660  0.749181  0.237301  1
  O  O290  1  0.750372  0.749916  0.271245  1
  O  O291  1  0.750781  0.250160  0.237273  1
  O  O292  1  0.541980  0.998862  0.249938  1
  O  O293  1  0.544209  0.501452  0.257936  1
  O  O294  1  0.944401  0.499089  0.253093  1
  O  O295  1  0.942637  0.000000  0.255316  1
  O  O296  1  0.501137  0.097820  0.267171  1
  O  O297  1  0.500627  0.598586  0.241036  1
  O  O298  1  0.500588  0.901473  0.267217  1
  O  O299  1  0.500585  0.376271  0.304205  1
  O  O300  1  0.572672  0.366203  0.320424  1
  O  O301  1  0.087549  0.170949  0.345944  1
  O  O302  1  0.411670  0.669817  0.345887  1
  O  O303  1  0.412361  0.329144  0.345900  1
  O  O304  1  0.087407  0.829434  0.345939  1
  O  O305  1  0.095008  0.092322  0.367088  1
  O  O306  1  0.094979  0.592352  0.406160  1
  O  O307  1  0.404113  0.591989  0.367067  1
  O  O308  1  0.403688  0.091824  0.406300  1
  O  O309  1  0.405051  0.907397  0.406041  1
  O  O310  1  0.404852  0.407549  0.367090  1
  O  O311  1  0.095119  0.407927  0.406172  1
  O  O312  1  0.095112  0.907918  0.367080  1
  O  O313  1  0.149915  0.242062  0.363887  1
  O  O314  1  0.350001  0.742857  0.363849  1
  O  O315  1  0.350290  0.257356  0.363888  1
  O  O316  1  0.149721  0.757861  0.363858  1
  O  O317  1  0.050279  0.252153  0.366226  1
  O  O318  1  0.050150  0.752111  0.407017  1
  O  O319  1  0.449681  0.751077  0.366054  1
  O  O320  1  0.449747  0.250747  0.407072  1
  O  O321  1  0.449881  0.747931  0.407228  1
  O  O322  1  0.449949  0.248087  0.366127  1
  O  O323  1  0.050219  0.248242  0.407049  1
  O  O324  1  0.050108  0.748269  0.366212  1
  O  O325  1  0.427793  0.633968  0.320526  1
  O  O326  1  0.499435  0.901652  0.373435  1
  O  O327  1  0.070534  0.000000  0.336748  1
  O  O328  1  0.429270  0.499220  0.336680  1
  O  O329  1  0.072320  0.134943  0.320578  1
  O  O330  1  0.428612  0.364355  0.320483  1
  O  O331  1  0.072142  0.865281  0.320600  1
  O  O332  1  0.190289  0.900521  0.400122  1
  O  O333  1  0.190260  0.400494  0.373121  1
  O  O334  1  0.308524  0.400644  0.400143  1
  O  O335  1  0.308535  0.900701  0.373094  1
  O  O336  1  0.308782  0.099634  0.373126  1
  O  O337  1  0.308822  0.599562  0.400103  1
  O  O338  1  0.190174  0.599451  0.373093  1
  O  O339  1  0.190208  0.099471  0.400150  1
  O  O340  1  0.151312  0.000000  0.382641  1
  O  O341  1  0.151266  0.500135  0.390602  1
  O  O342  1  0.349525  0.499484  0.382888  1
  O  O343  1  0.349602  0.000000  0.390326  1
  O  O344  1  0.250589  0.000000  0.386967  1
  O  O345  1  0.250545  0.500287  0.386280  1
  O  O346  1  0.181350  0.250003  0.386638  1
  O  O347  1  0.181242  0.750015  0.386608  1
  O  O348  1  0.318526  0.750109  0.386595  1
  O  O349  1  0.318678  0.250072  0.386649  1
  O  O350  1  0.249977  0.249463  0.403581  1
  O  O351  1  0.249856  0.749603  0.369662  1
  O  O352  1  0.249946  0.750388  0.403542  1
  O  O353  1  0.250085  0.250589  0.369702  1
  O  O354  1  0.050637  0.000000  0.384390  1
  O  O355  1  0.050600  0.499913  0.388864  1
  O  O356  1  0.449712  0.500663  0.384295  1
  O  O357  1  0.449844  0.002369  0.389002  1
  O  O358  1  0.499936  0.401462  0.399852  1
  O  O359  1  0.588660  0.670468  0.345796  1
  O  O360  1  0.910792  0.170094  0.345539  1
  O  O361  1  0.910641  0.830532  0.345573  1
  O  O362  1  0.589391  0.330694  0.345759  1
  O  O363  1  0.595077  0.592848  0.367073  1
  O  O364  1  0.595229  0.092717  0.406119  1
  O  O365  1  0.904755  0.092162  0.366797  1
  O  O366  1  0.904821  0.592190  0.406445  1
  O  O367  1  0.904990  0.407696  0.406395  1
  O  O368  1  0.904998  0.907654  0.366876  1
  O  O369  1  0.596166  0.907975  0.406322  1
  O  O370  1  0.596194  0.408103  0.366987  1
  O  O371  1  0.650048  0.742834  0.363879  1
  O  O372  1  0.850126  0.242457  0.363775  1
  O  O373  1  0.849918  0.757923  0.363787  1
  O  O374  1  0.650361  0.256990  0.363831  1
  O  O375  1  0.550075  0.752769  0.365658  1
  O  O376  1  0.949982  0.251869  0.365477  1
  O  O377  1  0.949874  0.752018  0.407785  1
  O  O378  1  0.949931  0.247852  0.407797  1
  O  O379  1  0.949816  0.747773  0.365446  1
  O  O380  1  0.550277  0.748546  0.407562  1
  O  O381  1  0.550349  0.248803  0.365584  1
  O  O382  1  0.501847  0.750002  0.386623  1
  O  O383  1  0.502650  0.250153  0.386618  1
  O  O384  1  0.996800  0.750019  0.386615  1
  O  O385  1  0.501156  0.098630  0.373411  1
  O  O386  1  -0.000000  0.901670  0.399782  1
  O  O387  1  -0.000000  0.401629  0.373461  1
  O  O388  1  0.500036  0.624043  0.336718  1
  O  O389  1  -0.000000  0.598395  0.373441  1
  O  O390  1  0.000000  0.876532  0.336644  1
  O  O391  1  0.571390  0.500902  0.336558  1
  O  O392  1  0.928268  0.000000  0.336297  1
  O  O393  1  0.691419  0.400628  0.400073  1
  O  O394  1  0.691466  0.900450  0.373160  1
  O  O395  1  0.810317  0.900735  0.400076  1
  O  O396  1  0.810281  0.400739  0.373184  1
  O  O397  1  0.810225  0.599472  0.373191  1
  O  O398  1  0.810187  0.099458  0.400065  1
  O  O399  1  0.691681  0.099323  0.373140  1
  O  O400  1  0.691701  0.599464  0.400124  1
  O  O401  1  0.650667  0.500757  0.382829  1
  O  O402  1  0.650721  0.000000  0.390420  1
  O  O403  1  0.848806  0.000000  0.382463  1
  O  O404  1  0.848762  0.500055  0.390800  1
  O  O405  1  0.749655  0.499926  0.386274  1
  O  O406  1  0.749681  0.000000  0.386971  1
  O  O407  1  0.681412  0.750019  0.386652  1
  O  O408  1  0.681564  0.249999  0.386600  1
  O  O409  1  0.819263  0.250056  0.386620  1
  O  O410  1  0.819139  0.750066  0.386631  1
  O  O411  1  0.750240  0.750957  0.403533  1
  O  O412  1  0.750378  0.250705  0.369725  1
  O  O413  1  0.750277  0.249489  0.403500  1
  O  O414  1  0.750140  0.749187  0.369750  1
  O  O415  1  0.550546  0.498911  0.384235  1
  O  O416  1  0.550595  0.998246  0.389021  1
  O  O417  1  0.949324  0.000000  0.384137  1
  O  O418  1  0.949288  0.500368  0.389108  1
  O  O419  1  0.550157  0.252376  0.407683  1
  O  O420  1  0.996970  0.250040  0.386639  1
  O  O421  1  0.500651  0.376045  0.336712  1
  O  O422  1  0.500690  0.598472  0.399831  1
  O  O423  1  -0.000000  0.098399  0.399809  1
  O  O424  1  -0.000000  0.124288  0.336601  1
  O  O425  1  0.089787  0.670180  0.478022  1
  O  O426  1  0.087457  0.671018  0.427298  1
  O  O427  1  0.412531  0.170903  0.478260  1
  O  O428  1  0.412258  0.171083  0.427387  1
  O  O429  1  0.411760  0.830401  0.427314  1
  O  O430  1  0.410978  0.831834  0.478088  1
  O  O431  1  0.087495  0.329528  0.427311  1
  O  O432  1  0.089869  0.329875  0.477995  1
  O  O433  1  0.150949  0.744013  0.496069  1
  O  O434  1  0.149794  0.742186  0.409359  1
  O  O435  1  0.350964  0.242985  0.496232  1
  O  O436  1  0.350144  0.243206  0.409419  1
  O  O437  1  0.350141  0.757555  0.409333  1
  O  O438  1  0.350925  0.756441  0.496151  1
  O  O439  1  0.149840  0.257959  0.409388  1
  O  O440  1  0.151003  0.257659  0.496222  1
  O  O441  1  0.001034  0.624058  0.469140  1
  O  O442  1  0.499743  0.876190  0.469052  1
  O  O443  1  0.072079  0.500127  0.468795  1
  O  O444  1  0.070512  0.500314  0.436503  1
  O  O445  1  0.429098  0.001069  0.468889  1
  O  O446  1  0.429279  0.000000  0.436564  1
  O  O447  1  0.072231  0.635081  0.452663  1
  O  O448  1  0.428557  0.135821  0.452779  1
  O  O449  1  0.427852  0.866211  0.452695  1
  O  O450  1  0.072179  0.365353  0.452651  1
  O  O451  1  0.001013  0.376215  0.469120  1
  O  O452  1  0.589219  0.169764  0.478124  1
  O  O453  1  0.589291  0.169400  0.427439  1
  O  O454  1  0.913089  0.670528  0.478532  1
  O  O455  1  0.910691  0.669974  0.427710  1
  O  O456  1  0.910716  0.330425  0.427686  1
  O  O457  1  0.912961  0.329778  0.478457  1
  O  O458  1  0.588778  0.829610  0.427506  1
  O  O459  1  0.588028  0.828943  0.478260  1
  O  O460  1  0.650725  0.243239  0.496155  1
  O  O461  1  0.650218  0.242793  0.409356  1
  O  O462  1  0.851064  0.742567  0.496372  1
  O  O463  1  0.849994  0.742292  0.409478  1
  O  O464  1  0.850032  0.257787  0.409470  1
  O  O465  1  0.851086  0.256873  0.496280  1
  O  O466  1  0.650198  0.756881  0.409439  1
  O  O467  1  0.650571  0.756207  0.496137  1
  O  O468  1  -0.000000  0.624271  0.436648  1
  O  O469  1  0.571155  0.000000  0.469004  1
  O  O470  1  0.571396  0.000000  0.436692  1
  O  O471  1  0.929914  0.500220  0.469253  1
  O  O472  1  0.928244  0.500448  0.436959  1
  O  O473  1  0.572624  0.134146  0.452804  1
  O  O474  1  0.928156  0.635233  0.453124  1
  O  O475  1  0.928152  0.365444  0.453078  1
  O  O476  1  0.571895  0.864526  0.452879  1
  O  O477  1  0.500542  0.124179  0.469040  1
  O  O478  1  0.000000  0.376531  0.436613  1
  O  O479  1  0.500616  0.124137  0.436530  1
  O  O480  1  0.500080  0.876145  0.436524  1
  O  O481  1  0.090068  0.169464  0.559957  1
  O  O482  1  0.411065  0.668586  0.559860  1
  O  O483  1  0.412681  0.329154  0.559752  1
  O  O484  1  0.089841  0.829929  0.559988  1
  O  O485  1  0.098175  0.592188  0.499225  1
  O  O486  1  0.099290  0.092066  0.538687  1
  O  O487  1  0.404383  0.091941  0.499474  1
  O  O488  1  0.405278  0.592667  0.538437  1
  O  O489  1  0.405403  0.407748  0.538513  1
  O  O490  1  0.404463  0.907217  0.499571  1
  O  O491  1  0.097535  0.907681  0.538755  1
  O  O492  1  0.096123  0.407651  0.499206  1
  O  O493  1  0.151179  0.244295  0.541950  1
  O  O494  1  0.350667  0.742790  0.541764  1
  O  O495  1  0.351306  0.256961  0.541770  1
  O  O496  1  0.150873  0.756705  0.541807  1
  O  O497  1  0.051083  0.750942  0.497973  1
  O  O498  1  0.051294  0.250019  0.540025  1
  O  O499  1  0.450539  0.251235  0.498526  1
  O  O500  1  0.450593  0.752454  0.540108  1
  O  O501  1  0.450858  0.247957  0.539554  1
  O  O502  1  0.450923  0.748381  0.497806  1
  O  O503  1  0.050898  0.748491  0.540144  1
  O  O504  1  0.051111  0.247302  0.497811  1
  O  O505  1  0.004011  0.749282  0.519062  1
  O  O506  1  0.004348  0.250214  0.518920  1
  O  O507  1  0.497449  0.749537  0.518969  1
  O  O508  1  0.002443  0.901536  0.506098  1
  O  O509  1  0.499698  0.624075  0.568952  1
  O  O510  1  0.072002  0.000000  0.569178  1
  O  O511  1  0.429056  0.499188  0.569094  1
  O  O512  1  0.192405  0.400974  0.532587  1
  O  O513  1  0.192988  0.900827  0.505313  1
  O  O514  1  0.309415  0.900573  0.532414  1
  O  O515  1  0.309882  0.400508  0.505618  1
  O  O516  1  0.310188  0.598843  0.505590  1
  O  O517  1  0.309714  0.099131  0.532466  1
  O  O518  1  0.191934  0.099780  0.505446  1
  O  O519  1  0.191328  0.599616  0.532416  1
  O  O520  1  0.145195  0.497783  0.516148  1
  O  O521  1  0.142544  0.998212  0.521106  1
  O  O522  1  0.342832  0.000000  0.514256  1
  O  O523  1  0.344629  0.499679  0.523670  1
  O  O524  1  0.245681  0.500382  0.517814  1
  O  O525  1  0.243958  0.000000  0.520540  1
  O  O526  1  0.182050  0.750543  0.518911  1
  O  O527  1  0.182256  0.250004  0.519084  1
  O  O528  1  0.319651  0.249719  0.519023  1
  O  O529  1  0.319569  0.750002  0.518956  1
  O  O530  1  0.250746  0.749590  0.535851  1
  O  O531  1  0.250869  0.250100  0.502118  1
  O  O532  1  0.251185  0.250164  0.535995  1
  O  O533  1  0.250934  0.748977  0.502008  1
  O  O534  1  0.044182  0.501425  0.515086  1
  O  O535  1  0.042166  0.001022  0.523438  1
  O  O536  1  0.442376  0.000000  0.517738  1
  O  O537  1  0.444238  0.499823  0.520363  1
  O  O538  1  0.002715  0.401299  0.532095  1
  O  O539  1  0.001096  0.124128  0.568846  1
  O  O540  1  -0.000000  0.876023  0.568873  1
  O  O541  1  0.001671  0.597985  0.532213  1
  O  O542  1  0.001647  0.097815  0.505990  1
  O  O543  1  0.587836  0.671697  0.559749  1
  O  O544  1  0.913156  0.170371  0.559460  1
  O  O545  1  0.912777  0.829913  0.559552  1
  O  O546  1  0.589314  0.330494  0.559869  1
  O  O547  1  0.597231  0.092616  0.499371  1
  O  O548  1  0.597232  0.591534  0.538741  1
  O  O549  1  0.905805  0.592570  0.499779  1
  O  O550  1  0.904799  0.092432  0.538211  1
  O  O551  1  0.904469  0.907624  0.538295  1
  O  O552  1  0.905147  0.407561  0.499696  1
  O  O553  1  0.595742  0.407091  0.538600  1
  O  O554  1  0.598696  0.908300  0.499339  1
  O  O555  1  0.650256  0.743222  0.541788  1
  O  O556  1  0.851298  0.243273  0.541660  1
  O  O557  1  0.850751  0.757034  0.541753  1
  O  O558  1  0.650891  0.257677  0.541824  1
  O  O559  1  0.550823  0.251830  0.498021  1
  O  O560  1  0.550845  0.750648  0.539314  1
  O  O561  1  0.950758  0.752614  0.498699  1
  O  O562  1  0.950992  0.251629  0.539263  1
  O  O563  1  0.950470  0.748282  0.539384  1
  O  O564  1  0.950734  0.247902  0.498610  1
  O  O565  1  0.551118  0.246660  0.539981  1
  O  O566  1  0.551187  0.750006  0.498691  1
  O  O567  1  0.503084  0.250589  0.519020  1
  O  O568  1  0.928101  0.865483  0.584928  1
  O  O569  1  0.928232  0.135282  0.584869  1
  O  O570  1  0.501168  0.401857  0.505862  1
  O  O571  1  0.571236  0.501136  0.568996  1
  O  O572  1  0.929982  0.000000  0.568748  1
  O  O573  1  0.571857  0.635861  0.585143  1
  O  O574  1  0.691857  0.900707  0.532610  1
  O  O575  1  0.691681  0.400386  0.505439  1
  O  O576  1  0.809789  0.400921  0.532425  1
  O  O577  1  0.809057  0.900423  0.505525  1
  O  O578  1  0.809214  0.099135  0.505513  1
  O  O579  1  0.809332  0.599402  0.532476  1
  O  O580  1  0.691338  0.599152  0.505490  1
  O  O581  1  0.692439  0.099751  0.532684  1
  O  O582  1  0.642336  0.001428  0.516942  1
  O  O583  1  0.645369  0.498812  0.521890  1
  O  O584  1  0.844700  0.500517  0.514482  1
  O  O585  1  0.842848  0.000000  0.523612  1
  O  O586  1  0.743778  0.000000  0.517498  1
  O  O587  1  0.745645  0.499852  0.520095  1
  O  O588  1  0.682207  0.249686  0.519004  1
  O  O589  1  0.681888  0.750267  0.518985  1
  O  O590  1  0.818959  0.750150  0.519044  1
  O  O591  1  0.819265  0.249935  0.518973  1
  O  O592  1  0.750899  0.250579  0.535968  1
  O  O593  1  0.750660  0.749181  0.502045  1
  O  O594  1  0.750372  0.749916  0.535988  1
  O  O595  1  0.750781  0.250160  0.502017  1
  O  O596  1  0.541980  0.998862  0.514681  1
  O  O597  1  0.544209  0.501452  0.522680  1
  O  O598  1  0.944401  0.499089  0.517837  1
  O  O599  1  0.942637  0.000000  0.520059  1
  O  O600  1  0.501137  0.097820  0.531914  1
  O  O601  1  0.500627  0.598586  0.505780  1
  O  O602  1  0.500588  0.901473  0.531961  1
  O  O603  1  0.500585  0.376271  0.568948  1
  O  O604  1  0.572672  0.366203  0.585167  1
  O  O605  1  0.087549  0.170949  0.610687  1
  O  O606  1  0.411670  0.669817  0.610630  1
  O  O607  1  0.412361  0.329144  0.610643  1
  O  O608  1  0.087407  0.829434  0.610682  1
  O  O609  1  0.095008  0.092322  0.631832  1
  O  O610  1  0.094979  0.592352  0.670903  1
  O  O611  1  0.404113  0.591989  0.631811  1
  O  O612  1  0.403688  0.091824  0.671043  1
  O  O613  1  0.405051  0.907397  0.670785  1
  O  O614  1  0.404852  0.407549  0.631833  1
  O  O615  1  0.095119  0.407927  0.670915  1
  O  O616  1  0.095112  0.907918  0.631823  1
  O  O617  1  0.149915  0.242062  0.628630  1
  O  O618  1  0.350001  0.742857  0.628593  1
  O  O619  1  0.350290  0.257356  0.628631  1
  O  O620  1  0.149721  0.757861  0.628602  1
  O  O621  1  0.050279  0.252153  0.630969  1
  O  O622  1  0.050150  0.752111  0.671761  1
  O  O623  1  0.449681  0.751077  0.630798  1
  O  O624  1  0.449747  0.250747  0.671816  1
  O  O625  1  0.449881  0.747931  0.671972  1
  O  O626  1  0.449949  0.248087  0.630871  1
  O  O627  1  0.050219  0.248242  0.671793  1
  O  O628  1  0.050108  0.748269  0.630955  1
  O  O629  1  0.427793  0.633968  0.585269  1
  O  O630  1  0.499435  0.901652  0.638178  1
  O  O631  1  0.070534  0.000000  0.601491  1
  O  O632  1  0.429270  0.499220  0.601423  1
  O  O633  1  0.072320  0.134943  0.585322  1
  O  O634  1  0.428612  0.364355  0.585227  1
  O  O635  1  0.072142  0.865281  0.585343  1
  O  O636  1  0.190289  0.900521  0.664865  1
  O  O637  1  0.190260  0.400494  0.637864  1
  O  O638  1  0.308524  0.400644  0.664887  1
  O  O639  1  0.308535  0.900701  0.637838  1
  O  O640  1  0.308782  0.099634  0.637870  1
  O  O641  1  0.308822  0.599562  0.664846  1
  O  O642  1  0.190174  0.599451  0.637837  1
  O  O643  1  0.190208  0.099471  0.664893  1
  O  O644  1  0.151312  0.000000  0.647384  1
  O  O645  1  0.151266  0.500135  0.655346  1
  O  O646  1  0.349525  0.499484  0.647632  1
  O  O647  1  0.349602  0.000000  0.655070  1
  O  O648  1  0.250589  0.000000  0.651710  1
  O  O649  1  0.250545  0.500287  0.651024  1
  O  O650  1  0.181350  0.250003  0.651381  1
  O  O651  1  0.181242  0.750015  0.651351  1
  O  O652  1  0.318526  0.750109  0.651339  1
  O  O653  1  0.318678  0.250072  0.651392  1
  O  O654  1  0.249977  0.249463  0.668325  1
  O  O655  1  0.249856  0.749603  0.634405  1
  O  O656  1  0.249946  0.750388  0.668285  1
  O  O657  1  0.250085  0.250589  0.634446  1
  O  O658  1  0.050637  0.000000  0.649133  1
  O  O659  1  0.050600  0.499913  0.653608  1
  O  O660  1  0.449712  0.500663  0.649038  1
  O  O661  1  0.449844  0.002369  0.653746  1
  O  O662  1  0.499936  0.401462  0.664596  1
  O  O663  1  0.588660  0.670468  0.610539  1
  O  O664  1  0.910792  0.170094  0.610282  1
  O  O665  1  0.910641  0.830532  0.610317  1
  O  O666  1  0.589391  0.330694  0.610503  1
  O  O667  1  0.595077  0.592848  0.631816  1
  O  O668  1  0.595229  0.092717  0.670862  1
  O  O669  1  0.904755  0.092162  0.631541  1
  O  O670  1  0.904821  0.592190  0.671188  1
  O  O671  1  0.904990  0.407696  0.671138  1
  O  O672  1  0.904998  0.907654  0.631620  1
  O  O673  1  0.596166  0.907975  0.671066  1
  O  O674  1  0.596194  0.408103  0.631730  1
  O  O675  1  0.650048  0.742834  0.628622  1
  O  O676  1  0.850126  0.242457  0.628518  1
  O  O677  1  0.849918  0.757923  0.628531  1
  O  O678  1  0.650361  0.256990  0.628574  1
  O  O679  1  0.550075  0.752769  0.630402  1
  O  O680  1  0.949982  0.251869  0.630221  1
  O  O681  1  0.949874  0.752018  0.672528  1
  O  O682  1  0.949931  0.247852  0.672540  1
  O  O683  1  0.949816  0.747773  0.630190  1
  O  O684  1  0.550277  0.748546  0.672305  1
  O  O685  1  0.550349  0.248803  0.630328  1
  O  O686  1  0.501847  0.750002  0.651367  1
  O  O687  1  0.502650  0.250153  0.651362  1
  O  O688  1  0.996800  0.750019  0.651359  1
  O  O689  1  0.501156  0.098630  0.638155  1
  O  O690  1  -0.000000  0.901670  0.664525  1
  O  O691  1  -0.000000  0.401629  0.638205  1
  O  O692  1  0.500036  0.624043  0.601462  1
  O  O693  1  -0.000000  0.598395  0.638185  1
  O  O694  1  -0.000000  0.876532  0.601388  1
  O  O695  1  0.571390  0.500902  0.601301  1
  O  O696  1  0.928268  0.000000  0.601040  1
  O  O697  1  0.691419  0.400628  0.664816  1
  O  O698  1  0.691466  0.900450  0.637904  1
  O  O699  1  0.810317  0.900735  0.664820  1
  O  O700  1  0.810281  0.400739  0.637928  1
  O  O701  1  0.810225  0.599472  0.637935  1
  O  O702  1  0.810187  0.099458  0.664808  1
  O  O703  1  0.691681  0.099323  0.637883  1
  O  O704  1  0.691701  0.599464  0.664867  1
  O  O705  1  0.650667  0.500757  0.647572  1
  O  O706  1  0.650721  0.000000  0.655164  1
  O  O707  1  0.848806  0.000000  0.647206  1
  O  O708  1  0.848762  0.500055  0.655544  1
  O  O709  1  0.749655  0.499926  0.651018  1
  O  O710  1  0.749681  0.000000  0.651715  1
  O  O711  1  0.681412  0.750019  0.651395  1
  O  O712  1  0.681564  0.249999  0.651343  1
  O  O713  1  0.819263  0.250056  0.651364  1
  O  O714  1  0.819139  0.750066  0.651374  1
  O  O715  1  0.750240  0.750957  0.668276  1
  O  O716  1  0.750378  0.250705  0.634468  1
  O  O717  1  0.750277  0.249489  0.668243  1
  O  O718  1  0.750140  0.749187  0.634494  1
  O  O719  1  0.550546  0.498911  0.648978  1
  O  O720  1  0.550595  0.998246  0.653765  1
  O  O721  1  0.949324  0.000000  0.648880  1
  O  O722  1  0.949288  0.500368  0.653851  1
  O  O723  1  0.550157  0.252376  0.672427  1
  O  O724  1  0.996970  0.250040  0.651383  1
  O  O725  1  0.500651  0.376045  0.601455  1
  O  O726  1  0.500690  0.598472  0.664575  1
  O  O727  1  0.000000  0.098399  0.664553  1
  O  O728  1  -0.000000  0.124288  0.601344  1
  O  O729  1  0.089787  0.670180  0.742766  1
  O  O730  1  0.087457  0.671018  0.692041  1
  O  O731  1  0.412531  0.170903  0.743003  1
  O  O732  1  0.412258  0.171083  0.692131  1
  O  O733  1  0.411760  0.830401  0.692058  1
  O  O734  1  0.410978  0.831834  0.742832  1
  O  O735  1  0.087495  0.329528  0.692054  1
  O  O736  1  0.089869  0.329875  0.742738  1
  O  O737  1  0.150949  0.744013  0.760812  1
  O  O738  1  0.149794  0.742186  0.674103  1
  O  O739  1  0.350964  0.242985  0.760976  1
  O  O740  1  0.350144  0.243206  0.674162  1
  O  O741  1  0.350141  0.757555  0.674077  1
  O  O742  1  0.350925  0.756441  0.760895  1
  O  O743  1  0.149840  0.257959  0.674132  1
  O  O744  1  0.151003  0.257659  0.760966  1
  O  O745  1  0.001034  0.624058  0.733883  1
  O  O746  1  0.499743  0.876190  0.733795  1
  O  O747  1  0.072079  0.500127  0.733539  1
  O  O748  1  0.070512  0.500314  0.701247  1
  O  O749  1  0.429098  0.001069  0.733633  1
  O  O750  1  0.429279  0.000000  0.701307  1
  O  O751  1  0.072231  0.635081  0.717407  1
  O  O752  1  0.428557  0.135821  0.717522  1
  O  O753  1  0.427852  0.866211  0.717439  1
  O  O754  1  0.072179  0.365353  0.717394  1
  O  O755  1  0.001013  0.376215  0.733863  1
  O  O756  1  0.589219  0.169764  0.742868  1
  O  O757  1  0.589291  0.169400  0.692183  1
  O  O758  1  0.913089  0.670528  0.743276  1
  O  O759  1  0.910691  0.669974  0.692454  1
  O  O760  1  0.910716  0.330425  0.692429  1
  O  O761  1  0.912961  0.329778  0.743201  1
  O  O762  1  0.588778  0.829610  0.692250  1
  O  O763  1  0.588028  0.828943  0.743004  1
  O  O764  1  0.650725  0.243239  0.760898  1
  O  O765  1  0.650218  0.242793  0.674100  1
  O  O766  1  0.851064  0.742567  0.761115  1
  O  O767  1  0.849994  0.742292  0.674222  1
  O  O768  1  0.850032  0.257787  0.674213  1
  O  O769  1  0.851086  0.256873  0.761023  1
  O  O770  1  0.650198  0.756881  0.674182  1
  O  O771  1  0.650571  0.756207  0.760880  1
  O  O772  1  -0.000000  0.624271  0.701392  1
  O  O773  1  0.571155  0.000000  0.733747  1
  O  O774  1  0.571396  0.000000  0.701435  1
  O  O775  1  0.929914  0.500220  0.733997  1
  O  O776  1  0.928244  0.500448  0.701703  1
  O  O777  1  0.572624  0.134146  0.717547  1
  O  O778  1  0.928156  0.635233  0.717868  1
  O  O779  1  0.928152  0.365444  0.717822  1
  O  O780  1  0.571895  0.864526  0.717622  1
  O  O781  1  0.500542  0.124179  0.733784  1
  O  O782  1  -0.000000  0.376531  0.701356  1
  O  O783  1  0.500616  0.124137  0.701274  1
  O  O784  1  0.500080  0.876145  0.701268  1
  O  O785  1  0.090068  0.169464  0.824701  1
  O  O786  1  0.411065  0.668586  0.824604  1
  O  O787  1  0.412681  0.329154  0.824496  1
  O  O788  1  0.089841  0.829929  0.824731  1
  O  O789  1  0.098175  0.592188  0.763968  1
  O  O790  1  0.099290  0.092066  0.803431  1
  O  O791  1  0.404383  0.091941  0.764217  1
  O  O792  1  0.405278  0.592667  0.803181  1
  O  O793  1  0.405403  0.407748  0.803257  1
  O  O794  1  0.404463  0.907217  0.764314  1
  O  O795  1  0.097535  0.907681  0.803499  1
  O  O796  1  0.096123  0.407651  0.763950  1
  O  O797  1  0.151179  0.244295  0.806694  1
  O  O798  1  0.350667  0.742790  0.806508  1
  O  O799  1  0.351306  0.256961  0.806513  1
  O  O800  1  0.150873  0.756705  0.806551  1
  O  O801  1  0.051083  0.750942  0.762716  1
  O  O802  1  0.051294  0.250019  0.804769  1
  O  O803  1  0.450539  0.251235  0.763269  1
  O  O804  1  0.450593  0.752454  0.804851  1
  O  O805  1  0.450858  0.247957  0.804298  1
  O  O806  1  0.450923  0.748381  0.762549  1
  O  O807  1  0.050898  0.748491  0.804888  1
  O  O808  1  0.051111  0.247302  0.762555  1
  O  O809  1  0.004011  0.749282  0.783805  1
  O  O810  1  0.004348  0.250214  0.783663  1
  O  O811  1  0.497449  0.749537  0.783712  1
  O  O812  1  0.002443  0.901536  0.770842  1
  O  O813  1  0.499698  0.624075  0.833696  1
  O  O814  1  0.429056  0.499188  0.833838  1
  O  O815  1  0.192405  0.400974  0.797330  1
  O  O816  1  0.192988  0.900827  0.770057  1
  O  O817  1  0.309415  0.900573  0.797157  1
  O  O818  1  0.309882  0.400508  0.770361  1
  O  O819  1  0.310188  0.598843  0.770334  1
  O  O820  1  0.309714  0.099131  0.797210  1
  O  O821  1  0.191934  0.099780  0.770190  1
  O  O822  1  0.191328  0.599616  0.797160  1
  O  O823  1  0.145195  0.497783  0.780892  1
  O  O824  1  0.142544  0.998212  0.785849  1
  O  O825  1  0.342832  0.000000  0.779000  1
  O  O826  1  0.344629  0.499679  0.788413  1
  O  O827  1  0.245681  0.500382  0.782557  1
  O  O828  1  0.243958  0.000000  0.785283  1
  O  O829  1  0.182050  0.750543  0.783654  1
  O  O830  1  0.182256  0.250004  0.783828  1
  O  O831  1  0.319651  0.249719  0.783766  1
  O  O832  1  0.319569  0.750002  0.783699  1
  O  O833  1  0.250746  0.749590  0.800595  1
  O  O834  1  0.250869  0.250100  0.766861  1
  O  O835  1  0.251185  0.250164  0.800738  1
  O  O836  1  0.250934  0.748977  0.766751  1
  O  O837  1  0.044182  0.501425  0.779830  1
  O  O838  1  0.042166  0.001022  0.788181  1
  O  O839  1  0.442376  0.000000  0.782481  1
  O  O840  1  0.444238  0.499823  0.785107  1
  O  O841  1  0.002715  0.401299  0.796839  1
  O  O842  1  0.001671  0.597985  0.796956  1
  O  O843  1  0.001647  0.097815  0.770733  1
  O  O844  1  0.587836  0.671697  0.824492  1
  O  O845  1  0.913156  0.170371  0.824203  1
  O  O846  1  0.912777  0.829913  0.824295  1
  O  O847  1  0.589314  0.330494  0.824612  1
  O  O848  1  0.597231  0.092616  0.764115  1
  O  O849  1  0.597232  0.591534  0.803485  1
  O  O850  1  0.905805  0.592570  0.764523  1
  O  O851  1  0.904799  0.092432  0.802954  1
  O  O852  1  0.904469  0.907624  0.803038  1
  O  O853  1  0.905147  0.407561  0.764439  1
  O  O854  1  0.595742  0.407091  0.803344  1
  O  O855  1  0.598696  0.908300  0.764082  1
  O  O856  1  0.650256  0.743222  0.806531  1
  O  O857  1  0.851298  0.243273  0.806404  1
  O  O858  1  0.850751  0.757034  0.806497  1
  O  O859  1  0.650891  0.257677  0.806567  1
  O  O860  1  0.550823  0.251830  0.762764  1
  O  O861  1  0.550845  0.750648  0.804057  1
  O  O862  1  0.950758  0.752614  0.763443  1
  O  O863  1  0.950992  0.251629  0.804007  1
  O  O864  1  0.950470  0.748282  0.804128  1
  O  O865  1  0.950734  0.247902  0.763353  1
  O  O866  1  0.551118  0.246660  0.804725  1
  O  O867  1  0.551187  0.750006  0.763434  1
  O  O868  1  0.503084  0.250589  0.783764  1
  O  O869  1  0.501168  0.401857  0.770605  1
  O  O870  1  0.571236  0.501136  0.833740  1
  O  O871  1  0.571857  0.635861  0.849886  1
  O  O872  1  0.691857  0.900707  0.797353  1
  O  O873  1  0.691681  0.400386  0.770182  1
  O  O874  1  0.809789  0.400921  0.797168  1
  O  O875  1  0.809057  0.900423  0.770269  1
  O  O876  1  0.809214  0.099135  0.770257  1
  O  O877  1  0.809332  0.599402  0.797220  1
  O  O878  1  0.691338  0.599152  0.770234  1
  O  O879  1  0.692439  0.099751  0.797427  1
  O  O880  1  0.642336  0.001428  0.781686  1
  O  O881  1  0.645369  0.498812  0.786634  1
  O  O882  1  0.844700  0.500517  0.779226  1
  O  O883  1  0.842848  0.000000  0.788356  1
  O  O884  1  0.743778  0.000000  0.782242  1
  O  O885  1  0.745645  0.499852  0.784838  1
  O  O886  1  0.682207  0.249686  0.783748  1
  O  O887  1  0.681888  0.750267  0.783729  1
  O  O888  1  0.818959  0.750150  0.783787  1
  O  O889  1  0.819265  0.249935  0.783717  1
  O  O890  1  0.750899  0.250579  0.800711  1
  O  O891  1  0.750660  0.749181  0.766788  1
  O  O892  1  0.750372  0.749916  0.800732  1
  O  O893  1  0.750781  0.250160  0.766760  1
  O  O894  1  0.541980  0.998862  0.779425  1
  O  O895  1  0.544209  0.501452  0.787423  1
  O  O896  1  0.944401  0.499089  0.782580  1
  O  O897  1  0.942637  0.000000  0.784803  1
  O  O898  1  0.501137  0.097820  0.796658  1
  O  O899  1  0.500627  0.598586  0.770523  1
  O  O900  1  0.500588  0.901473  0.796704  1
  O  O901  1  0.500585  0.376271  0.833692  1
  O  O902  1  0.572672  0.366203  0.849910  1
  O  O903  1  0.427793  0.633968  0.850013  1
  O  O904  1  0.428612  0.364355  0.849970  1
  Si  Si905  1  0.401745  0.499804  0.110568  1
  Si  Si906  1  0.401729  0.000000  0.133192  1
  Si  Si907  1  0.098352  0.000000  0.110567  1
  Si  Si908  1  0.304859  0.000000  0.115523  1
  Si  Si909  1  0.098325  0.500112  0.133196  1
  Si  Si910  1  0.096416  0.192495  0.095730  1
  Si  Si911  1  0.403113  0.692005  0.095671  1
  Si  Si912  1  0.403593  0.307516  0.095694  1
  Si  Si913  1  0.096300  0.807753  0.095719  1
  Si  Si914  1  0.439350  0.610507  0.070219  1
  Si  Si915  1  0.439899  0.388161  0.070188  1
  Si  Si916  1  0.192815  0.213678  0.135700  1
  Si  Si917  1  0.192723  0.713669  0.108060  1
  Si  Si918  1  0.306965  0.713831  0.135650  1
  Si  Si919  1  0.307081  0.213904  0.108101  1
  Si  Si920  1  0.306825  0.786420  0.108059  1
  Si  Si921  1  0.306926  0.286375  0.135698  1
  Si  Si922  1  0.192895  0.286294  0.108092  1
  Si  Si923  1  0.192798  0.786318  0.135665  1
  Si  Si924  1  0.194963  0.000000  0.128259  1
  Si  Si925  1  0.194923  0.500029  0.115498  1
  Si  Si926  1  0.304844  0.500031  0.128222  1
  Si  Si927  1  0.000000  0.500049  0.116072  1
  Si  Si928  1  -0.000000  0.000000  0.127689  1
  Si  Si929  1  0.596906  0.692587  0.095589  1
  Si  Si930  1  0.903059  0.192106  0.095367  1
  Si  Si931  1  0.902951  0.807980  0.095385  1
  Si  Si932  1  0.597499  0.308200  0.095545  1
  Si  Si933  1  0.560746  0.611942  0.070100  1
  Si  Si934  1  0.561293  0.389607  0.070116  1
  Si  Si935  1  0.693313  0.713746  0.135694  1
  Si  Si936  1  0.693431  0.213595  0.108077  1
  Si  Si937  1  0.807476  0.213639  0.135664  1
  Si  Si938  1  0.807388  0.713634  0.108100  1
  Si  Si939  1  0.807555  0.286564  0.108090  1
  Si  Si940  1  0.807463  0.786554  0.135677  1
  Si  Si941  1  0.693179  0.786182  0.108112  1
  Si  Si942  1  0.693297  0.286365  0.135643  1
  Si  Si943  1  0.695294  0.500136  0.128181  1
  Si  Si944  1  0.695324  0.000000  0.115575  1
  Si  Si945  1  0.805479  0.000000  0.128166  1
  Si  Si946  1  0.805467  0.500086  0.115602  1
  Si  Si947  1  0.598460  0.500297  0.110500  1
  Si  Si948  1  0.598524  0.000000  0.133264  1
  Si  Si949  1  0.901615  0.000000  0.110320  1
  Si  Si950  1  0.901604  0.500055  0.133447  1
  Si  Si951  1  -0.000000  0.211876  0.135748  1
  Si  Si952  1  -0.000000  0.711875  0.108019  1
  Si  Si953  1  0.500859  0.212140  0.108015  1
  Si  Si954  1  0.500535  0.711967  0.135741  1
  Si  Si955  1  0.500451  0.287941  0.135742  1
  Si  Si956  1  0.000000  0.788211  0.135722  1
  Si  Si957  1  -0.000000  0.288151  0.108042  1
  Si  Si958  1  0.500121  0.788169  0.108027  1
  Si  Si959  1  0.500253  0.000000  0.116018  1
  Si  Si960  1  0.500223  0.499938  0.127760  1
  Si  Si961  1  0.061622  0.388951  0.202377  1
  Si  Si962  1  0.060159  0.389118  0.173505  1
  Si  Si963  1  0.439133  0.889895  0.202396  1
  Si  Si964  1  0.439383  0.889610  0.173512  1
  Si  Si965  1  0.098240  0.692207  0.227810  1
  Si  Si966  1  0.096314  0.692549  0.148025  1
  Si  Si967  1  0.404090  0.192103  0.228074  1
  Si  Si968  1  0.403251  0.192281  0.148104  1
  Si  Si969  1  0.403409  0.807783  0.148047  1
  Si  Si970  1  0.403624  0.808209  0.227877  1
  Si  Si971  1  0.096406  0.307778  0.148047  1
  Si  Si972  1  0.097995  0.307675  0.227798  1
  Si  Si973  1  0.061625  0.611309  0.202385  1
  Si  Si974  1  0.060185  0.611513  0.173511  1
  Si  Si975  1  0.439808  0.112161  0.202485  1
  Si  Si976  1  0.439876  0.111957  0.173591  1
  Si  Si977  1  0.560516  0.888216  0.202572  1
  Si  Si978  1  0.560778  0.888323  0.173688  1
  Si  Si979  1  0.597758  0.192334  0.227890  1
  Si  Si980  1  0.597191  0.192219  0.148169  1
  Si  Si981  1  0.904524  0.692453  0.228314  1
  Si  Si982  1  0.902981  0.692094  0.148396  1
  Si  Si983  1  0.903044  0.307947  0.148383  1
  Si  Si984  1  0.904362  0.307673  0.228232  1
  Si  Si985  1  0.597241  0.807839  0.148224  1
  Si  Si986  1  0.597589  0.807906  0.228032  1
  Si  Si987  1  0.561192  0.110604  0.202497  1
  Si  Si988  1  0.561272  0.110659  0.173621  1
  Si  Si989  1  0.940242  0.611409  0.202786  1
  Si  Si990  1  0.938779  0.611548  0.173909  1
  Si  Si991  1  0.938752  0.389244  0.173866  1
  Si  Si992  1  0.940236  0.389059  0.202743  1
  Si  Si993  1  0.496646  0.000000  0.259826  1
  Si  Si994  1  0.002230  0.287767  0.268042  1
  Si  Si995  1  0.001980  0.788137  0.240513  1
  Si  Si996  1  0.001791  0.211229  0.240380  1
  Si  Si997  1  0.497644  0.500330  0.248436  1
  Si  Si998  1  0.098628  0.191773  0.280695  1
  Si  Si999  1  0.403603  0.691901  0.280581  1
  Si  Si1000  1  0.404466  0.307672  0.280449  1
  Si  Si1001  1  0.098095  0.807755  0.280705  1
  Si  Si1002  1  0.061687  0.111153  0.306113  1
  Si  Si1003  1  0.439084  0.610394  0.306079  1
  Si  Si1004  1  0.439861  0.388134  0.306034  1
  Si  Si1005  1  0.061559  0.888815  0.306126  1
  Si  Si1006  1  0.193633  0.713749  0.267959  1
  Si  Si1007  1  0.193802  0.214002  0.240514  1
  Si  Si1008  1  0.308125  0.213349  0.268085  1
  Si  Si1009  1  0.308021  0.712982  0.240432  1
  Si  Si1010  1  0.307939  0.286374  0.240495  1
  Si  Si1011  1  0.307753  0.786373  0.268006  1
  Si  Si1012  1  0.194106  0.786537  0.240359  1
  Si  Si1013  1  0.194191  0.286746  0.268123  1
  Si  Si1014  1  0.193075  0.500005  0.260548  1
  Si  Si1015  1  0.192469  0.000000  0.247847  1
  Si  Si1016  1  0.301889  0.000000  0.260634  1
  Si  Si1017  1  0.303093  0.499758  0.247967  1
  Si  Si1018  1  0.096193  0.499919  0.242723  1
  Si  Si1019  1  0.095737  0.000000  0.265735  1
  Si  Si1020  1  0.397872  0.000000  0.242921  1
  Si  Si1021  1  0.399424  0.499996  0.265587  1
  Si  Si1022  1  0.001598  0.711538  0.268174  1
  Si  Si1023  1  0.501208  0.288339  0.240415  1
  Si  Si1024  1  0.500243  0.712158  0.240357  1
  Si  Si1025  1  0.501348  0.211157  0.268059  1
  Si  Si1026  1  0.998347  0.499814  0.260061  1
  Si  Si1027  1  0.597142  0.692298  0.280463  1
  Si  Si1028  1  0.904539  0.192290  0.280197  1
  Si  Si1029  1  0.904053  0.807823  0.280295  1
  Si  Si1030  1  0.597637  0.307504  0.280611  1
  Si  Si1031  1  0.560471  0.612211  0.305960  1
  Si  Si1032  1  0.940305  0.111393  0.305724  1
  Si  Si1033  1  0.940173  0.889026  0.305774  1
  Si  Si1034  1  0.561252  0.389830  0.305988  1
  Si  Si1035  1  0.693901  0.214039  0.268100  1
  Si  Si1036  1  0.693550  0.713300  0.240462  1
  Si  Si1037  1  0.807417  0.713568  0.268094  1
  Si  Si1038  1  0.807723  0.213343  0.240436  1
  Si  Si1039  1  0.807562  0.786198  0.240479  1
  Si  Si1040  1  0.807912  0.286762  0.268024  1
  Si  Si1041  1  0.693726  0.286191  0.240451  1
  Si  Si1042  1  0.693417  0.786469  0.268061  1
  Si  Si1043  1  0.692286  0.000000  0.260704  1
  Si  Si1044  1  0.692948  0.499698  0.247914  1
  Si  Si1045  1  0.802804  0.500210  0.260607  1
  Si  Si1046  1  0.801571  0.000000  0.247825  1
  Si  Si1047  1  0.595430  0.000000  0.242860  1
  Si  Si1048  1  0.595890  0.499686  0.265669  1
  Si  Si1049  1  0.899556  0.499916  0.243125  1
  Si  Si1050  1  0.898045  0.000000  0.265381  1
  Si  Si1051  1  0.997333  0.000000  0.248661  1
  Si  Si1052  1  0.500032  0.788030  0.268045  1
  Si  Si1053  1  0.401745  0.499804  0.375312  1
  Si  Si1054  1  0.401729  0.000000  0.397936  1
  Si  Si1055  1  0.098352  0.000000  0.375311  1
  Si  Si1056  1  0.304859  0.000000  0.380267  1
  Si  Si1057  1  0.098325  0.500112  0.397940  1
  Si  Si1058  1  0.096416  0.192495  0.360474  1
  Si  Si1059  1  0.403113  0.692005  0.360415  1
  Si  Si1060  1  0.403593  0.307516  0.360437  1
  Si  Si1061  1  0.096300  0.807753  0.360463  1
  Si  Si1062  1  0.060265  0.111470  0.334988  1
  Si  Si1063  1  0.439350  0.610507  0.334963  1
  Si  Si1064  1  0.439899  0.388161  0.334932  1
  Si  Si1065  1  0.060097  0.889080  0.335001  1
  Si  Si1066  1  0.192815  0.213678  0.400443  1
  Si  Si1067  1  0.192723  0.713669  0.372804  1
  Si  Si1068  1  0.306965  0.713831  0.400394  1
  Si  Si1069  1  0.307081  0.213904  0.372845  1
  Si  Si1070  1  0.306825  0.786420  0.372803  1
  Si  Si1071  1  0.306926  0.286375  0.400441  1
  Si  Si1072  1  0.192895  0.286294  0.372836  1
  Si  Si1073  1  0.192798  0.786318  0.400409  1
  Si  Si1074  1  0.194963  0.000000  0.393002  1
  Si  Si1075  1  0.194923  0.500029  0.380242  1
  Si  Si1076  1  0.304844  0.500031  0.392965  1
  Si  Si1077  1  -0.000000  0.500049  0.380815  1
  Si  Si1078  1  -0.000000  0.000000  0.392432  1
  Si  Si1079  1  0.596906  0.692587  0.360332  1
  Si  Si1080  1  0.903059  0.192106  0.360111  1
  Si  Si1081  1  0.902951  0.807980  0.360128  1
  Si  Si1082  1  0.597499  0.308200  0.360289  1
  Si  Si1083  1  0.560746  0.611942  0.334844  1
  Si  Si1084  1  0.938854  0.111633  0.334598  1
  Si  Si1085  1  0.938688  0.889318  0.334651  1
  Si  Si1086  1  0.561293  0.389607  0.334860  1
  Si  Si1087  1  0.693313  0.713746  0.400438  1
  Si  Si1088  1  0.693431  0.213595  0.372820  1
  Si  Si1089  1  0.807476  0.213639  0.400408  1
  Si  Si1090  1  0.807388  0.713634  0.372843  1
  Si  Si1091  1  0.807555  0.286564  0.372833  1
  Si  Si1092  1  0.807463  0.786554  0.400421  1
  Si  Si1093  1  0.693179  0.786182  0.372856  1
  Si  Si1094  1  0.693297  0.286365  0.400386  1
  Si  Si1095  1  0.695294  0.500136  0.392925  1
  Si  Si1096  1  0.695324  0.000000  0.380319  1
  Si  Si1097  1  0.805479  0.000000  0.392909  1
  Si  Si1098  1  0.805467  0.500086  0.380345  1
  Si  Si1099  1  0.598460  0.500297  0.375243  1
  Si  Si1100  1  0.598524  0.000000  0.398008  1
  Si  Si1101  1  0.901615  0.000000  0.375063  1
  Si  Si1102  1  0.901604  0.500055  0.398191  1
  Si  Si1103  1  0.000000  0.211876  0.400491  1
  Si  Si1104  1  -0.000000  0.711875  0.372762  1
  Si  Si1105  1  0.500859  0.212140  0.372759  1
  Si  Si1106  1  0.500535  0.711967  0.400484  1
  Si  Si1107  1  0.500451  0.287941  0.400485  1
  Si  Si1108  1  -0.000000  0.788211  0.400466  1
  Si  Si1109  1  0.000000  0.288151  0.372785  1
  Si  Si1110  1  0.500121  0.788169  0.372770  1
  Si  Si1111  1  0.500253  0.000000  0.380761  1
  Si  Si1112  1  0.500223  0.499938  0.392503  1
  Si  Si1113  1  0.061622  0.388951  0.467121  1
  Si  Si1114  1  0.060159  0.389118  0.438249  1
  Si  Si1115  1  0.439133  0.889895  0.467140  1
  Si  Si1116  1  0.439383  0.889610  0.438255  1
  Si  Si1117  1  0.098240  0.692207  0.492554  1
  Si  Si1118  1  0.096314  0.692549  0.412769  1
  Si  Si1119  1  0.404090  0.192103  0.492817  1
  Si  Si1120  1  0.403251  0.192281  0.412848  1
  Si  Si1121  1  0.403409  0.807783  0.412790  1
  Si  Si1122  1  0.403624  0.808209  0.492620  1
  Si  Si1123  1  0.096406  0.307778  0.412791  1
  Si  Si1124  1  0.097995  0.307675  0.492541  1
  Si  Si1125  1  0.061625  0.611309  0.467128  1
  Si  Si1126  1  0.060185  0.611513  0.438255  1
  Si  Si1127  1  0.439808  0.112161  0.467229  1
  Si  Si1128  1  0.439876  0.111957  0.438335  1
  Si  Si1129  1  0.560516  0.888216  0.467315  1
  Si  Si1130  1  0.560778  0.888323  0.438432  1
  Si  Si1131  1  0.597758  0.192334  0.492633  1
  Si  Si1132  1  0.597191  0.192219  0.412912  1
  Si  Si1133  1  0.904524  0.692453  0.493058  1
  Si  Si1134  1  0.902981  0.692094  0.413140  1
  Si  Si1135  1  0.903044  0.307947  0.413126  1
  Si  Si1136  1  0.904362  0.307673  0.492975  1
  Si  Si1137  1  0.597241  0.807839  0.412967  1
  Si  Si1138  1  0.597589  0.807906  0.492775  1
  Si  Si1139  1  0.561192  0.110604  0.467240  1
  Si  Si1140  1  0.561272  0.110659  0.438365  1
  Si  Si1141  1  0.940242  0.611409  0.467530  1
  Si  Si1142  1  0.938779  0.611548  0.438652  1
  Si  Si1143  1  0.938752  0.389244  0.438610  1
  Si  Si1144  1  0.940236  0.389059  0.467487  1
  Si  Si1145  1  0.496646  0.000000  0.524570  1
  Si  Si1146  1  0.002230  0.287767  0.532786  1
  Si  Si1147  1  0.001980  0.788137  0.505256  1
  Si  Si1148  1  0.001791  0.211229  0.505124  1
  Si  Si1149  1  0.497644  0.500330  0.513179  1
  Si  Si1150  1  0.098628  0.191773  0.545439  1
  Si  Si1151  1  0.403603  0.691901  0.545324  1
  Si  Si1152  1  0.404466  0.307672  0.545192  1
  Si  Si1153  1  0.098095  0.807755  0.545448  1
  Si  Si1154  1  0.061687  0.111153  0.570856  1
  Si  Si1155  1  0.439084  0.610394  0.570822  1
  Si  Si1156  1  0.439861  0.388134  0.570778  1
  Si  Si1157  1  0.061559  0.888815  0.570870  1
  Si  Si1158  1  0.193633  0.713749  0.532702  1
  Si  Si1159  1  0.193802  0.214002  0.505257  1
  Si  Si1160  1  0.308125  0.213349  0.532828  1
  Si  Si1161  1  0.308021  0.712982  0.505176  1
  Si  Si1162  1  0.307939  0.286374  0.505239  1
  Si  Si1163  1  0.307753  0.786373  0.532750  1
  Si  Si1164  1  0.194106  0.786537  0.505102  1
  Si  Si1165  1  0.194191  0.286746  0.532866  1
  Si  Si1166  1  0.193075  0.500005  0.525291  1
  Si  Si1167  1  0.192469  0.000000  0.512590  1
  Si  Si1168  1  0.301889  0.000000  0.525377  1
  Si  Si1169  1  0.303093  0.499758  0.512711  1
  Si  Si1170  1  0.096193  0.499919  0.507467  1
  Si  Si1171  1  0.095737  0.000000  0.530478  1
  Si  Si1172  1  0.397872  0.000000  0.507664  1
  Si  Si1173  1  0.399424  0.499996  0.530330  1
  Si  Si1174  1  0.001598  0.711538  0.532918  1
  Si  Si1175  1  0.501208  0.288339  0.505159  1
  Si  Si1176  1  0.500243  0.712158  0.505100  1
  Si  Si1177  1  0.501348  0.211157  0.532802  1
  Si  Si1178  1  0.998347  0.499814  0.524804  1
  Si  Si1179  1  0.597142  0.692298  0.545206  1
  Si  Si1180  1  0.904539  0.192290  0.544940  1
  Si  Si1181  1  0.904053  0.807823  0.545038  1
  Si  Si1182  1  0.597637  0.307504  0.545355  1
  Si  Si1183  1  0.560471  0.612211  0.570703  1
  Si  Si1184  1  0.940305  0.111393  0.570467  1
  Si  Si1185  1  0.940173  0.889026  0.570517  1
  Si  Si1186  1  0.561252  0.389830  0.570732  1
  Si  Si1187  1  0.693901  0.214039  0.532844  1
  Si  Si1188  1  0.693550  0.713300  0.505205  1
  Si  Si1189  1  0.807417  0.713568  0.532838  1
  Si  Si1190  1  0.807723  0.213343  0.505179  1
  Si  Si1191  1  0.807562  0.786198  0.505222  1
  Si  Si1192  1  0.807912  0.286762  0.532767  1
  Si  Si1193  1  0.693726  0.286191  0.505194  1
  Si  Si1194  1  0.693417  0.786469  0.532804  1
  Si  Si1195  1  0.692286  0.000000  0.525447  1
  Si  Si1196  1  0.692948  0.499698  0.512657  1
  Si  Si1197  1  0.802804  0.500210  0.525351  1
  Si  Si1198  1  0.801571  0.000000  0.512568  1
  Si  Si1199  1  0.595430  0.000000  0.507604  1
  Si  Si1200  1  0.595890  0.499686  0.530413  1
  Si  Si1201  1  0.899556  0.499916  0.507868  1
  Si  Si1202  1  0.898045  0.000000  0.530124  1
  Si  Si1203  1  0.997333  0.000000  0.513405  1
  Si  Si1204  1  0.500032  0.788030  0.532789  1
  Si  Si1205  1  0.401745  0.499804  0.640055  1
  Si  Si1206  1  0.401729  0.000000  0.662679  1
  Si  Si1207  1  0.098352  0.000000  0.640054  1
  Si  Si1208  1  0.304859  0.000000  0.645010  1
  Si  Si1209  1  0.098325  0.500112  0.662683  1
  Si  Si1210  1  0.096416  0.192495  0.625217  1
  Si  Si1211  1  0.403113  0.692005  0.625158  1
  Si  Si1212  1  0.403593  0.307516  0.625181  1
  Si  Si1213  1  0.096300  0.807753  0.625206  1
  Si  Si1214  1  0.060265  0.111470  0.599732  1
  Si  Si1215  1  0.439350  0.610507  0.599706  1
  Si  Si1216  1  0.439899  0.388161  0.599675  1
  Si  Si1217  1  0.060097  0.889080  0.599745  1
  Si  Si1218  1  0.192815  0.213678  0.665187  1
  Si  Si1219  1  0.192723  0.713669  0.637547  1
  Si  Si1220  1  0.306965  0.713831  0.665137  1
  Si  Si1221  1  0.307081  0.213904  0.637588  1
  Si  Si1222  1  0.306825  0.786420  0.637546  1
  Si  Si1223  1  0.306926  0.286375  0.665185  1
  Si  Si1224  1  0.192895  0.286294  0.637579  1
  Si  Si1225  1  0.192798  0.786318  0.665152  1
  Si  Si1226  1  0.194963  0.000000  0.657746  1
  Si  Si1227  1  0.194923  0.500029  0.644985  1
  Si  Si1228  1  0.304844  0.500031  0.657709  1
  Si  Si1229  1  -0.000000  0.500049  0.645559  1
  Si  Si1230  1  0.000000  0.000000  0.657176  1
  Si  Si1231  1  0.596906  0.692587  0.625076  1
  Si  Si1232  1  0.903059  0.192106  0.624854  1
  Si  Si1233  1  0.902951  0.807980  0.624872  1
  Si  Si1234  1  0.597499  0.308200  0.625032  1
  Si  Si1235  1  0.560746  0.611942  0.599587  1
  Si  Si1236  1  0.938854  0.111633  0.599342  1
  Si  Si1237  1  0.938688  0.889318  0.599395  1
  Si  Si1238  1  0.561293  0.389607  0.599603  1
  Si  Si1239  1  0.693313  0.713746  0.665181  1
  Si  Si1240  1  0.693431  0.213595  0.637564  1
  Si  Si1241  1  0.807476  0.213639  0.665151  1
  Si  Si1242  1  0.807388  0.713634  0.637586  1
  Si  Si1243  1  0.807555  0.286564  0.637577  1
  Si  Si1244  1  0.807463  0.786554  0.665164  1
  Si  Si1245  1  0.693179  0.786182  0.637599  1
  Si  Si1246  1  0.693297  0.286365  0.665130  1
  Si  Si1247  1  0.695294  0.500136  0.657668  1
  Si  Si1248  1  0.695324  0.000000  0.645062  1
  Si  Si1249  1  0.805479  0.000000  0.657653  1
  Si  Si1250  1  0.805467  0.500086  0.645089  1
  Si  Si1251  1  0.598460  0.500297  0.639987  1
  Si  Si1252  1  0.598524  0.000000  0.662751  1
  Si  Si1253  1  0.901615  0.000000  0.639807  1
  Si  Si1254  1  0.901604  0.500055  0.662934  1
  Si  Si1255  1  -0.000000  0.211876  0.665235  1
  Si  Si1256  1  -0.000000  0.711875  0.637506  1
  Si  Si1257  1  0.500859  0.212140  0.637502  1
  Si  Si1258  1  0.500535  0.711967  0.665228  1
  Si  Si1259  1  0.500451  0.287941  0.665229  1
  Si  Si1260  1  -0.000000  0.788211  0.665209  1
  Si  Si1261  1  0.000000  0.288151  0.637529  1
  Si  Si1262  1  0.500121  0.788169  0.637514  1
  Si  Si1263  1  0.500253  0.000000  0.645505  1
  Si  Si1264  1  0.500223  0.499938  0.657247  1
  Si  Si1265  1  0.061622  0.388951  0.731864  1
  Si  Si1266  1  0.060159  0.389118  0.702992  1
  Si  Si1267  1  0.439133  0.889895  0.731883  1
  Si  Si1268  1  0.439383  0.889610  0.702999  1
  Si  Si1269  1  0.098240  0.692207  0.757297  1
  Si  Si1270  1  0.096314  0.692549  0.677512  1
  Si  Si1271  1  0.404090  0.192103  0.757561  1
  Si  Si1272  1  0.403251  0.192281  0.677591  1
  Si  Si1273  1  0.403409  0.807783  0.677534  1
  Si  Si1274  1  0.403624  0.808209  0.757364  1
  Si  Si1275  1  0.096406  0.307778  0.677534  1
  Si  Si1276  1  0.097995  0.307675  0.757285  1
  Si  Si1277  1  0.061625  0.611309  0.731872  1
  Si  Si1278  1  0.060185  0.611513  0.702998  1
  Si  Si1279  1  0.439808  0.112161  0.731972  1
  Si  Si1280  1  0.439876  0.111957  0.703078  1
  Si  Si1281  1  0.560516  0.888216  0.732059  1
  Si  Si1282  1  0.560778  0.888323  0.703175  1
  Si  Si1283  1  0.597758  0.192334  0.757377  1
  Si  Si1284  1  0.597191  0.192219  0.677656  1
  Si  Si1285  1  0.904524  0.692453  0.757801  1
  Si  Si1286  1  0.902981  0.692094  0.677883  1
  Si  Si1287  1  0.903044  0.307947  0.677870  1
  Si  Si1288  1  0.904362  0.307673  0.757719  1
  Si  Si1289  1  0.597241  0.807839  0.677711  1
  Si  Si1290  1  0.597589  0.807906  0.757519  1
  Si  Si1291  1  0.561192  0.110604  0.731984  1
  Si  Si1292  1  0.561272  0.110659  0.703108  1
  Si  Si1293  1  0.940242  0.611409  0.732273  1
  Si  Si1294  1  0.938779  0.611548  0.703396  1
  Si  Si1295  1  0.938752  0.389244  0.703353  1
  Si  Si1296  1  0.940236  0.389059  0.732230  1
  Si  Si1297  1  0.496646  0.000000  0.789313  1
  Si  Si1298  1  0.002230  0.287767  0.797529  1
  Si  Si1299  1  0.001980  0.788137  0.770000  1
  Si  Si1300  1  0.001791  0.211229  0.769867  1
  Si  Si1301  1  0.497644  0.500330  0.777923  1
  Si  Si1302  1  0.098628  0.191773  0.810182  1
  Si  Si1303  1  0.403603  0.691901  0.810068  1
  Si  Si1304  1  0.404466  0.307672  0.809936  1
  Si  Si1305  1  0.098095  0.807755  0.810192  1
  Si  Si1306  1  0.439084  0.610394  0.835566  1
  Si  Si1307  1  0.439861  0.388134  0.835521  1
  Si  Si1308  1  0.193633  0.713749  0.797445  1
  Si  Si1309  1  0.193802  0.214002  0.770001  1
  Si  Si1310  1  0.308125  0.213349  0.797572  1
  Si  Si1311  1  0.308021  0.712982  0.769919  1
  Si  Si1312  1  0.307939  0.286374  0.769982  1
  Si  Si1313  1  0.307753  0.786373  0.797493  1
  Si  Si1314  1  0.194106  0.786537  0.769846  1
  Si  Si1315  1  0.194191  0.286746  0.797610  1
  Si  Si1316  1  0.193075  0.500005  0.790035  1
  Si  Si1317  1  0.192469  0.000000  0.777334  1
  Si  Si1318  1  0.301889  0.000000  0.790121  1
  Si  Si1319  1  0.303093  0.499758  0.777454  1
  Si  Si1320  1  0.096193  0.499919  0.772210  1
  Si  Si1321  1  0.095737  0.000000  0.795222  1
  Si  Si1322  1  0.397872  0.000000  0.772408  1
  Si  Si1323  1  0.399424  0.499996  0.795074  1
  Si  Si1324  1  0.001598  0.711538  0.797661  1
  Si  Si1325  1  0.501208  0.288339  0.769902  1
  Si  Si1326  1  0.500243  0.712158  0.769844  1
  Si  Si1327  1  0.501348  0.211157  0.797546  1
  Si  Si1328  1  0.998347  0.499814  0.789548  1
  Si  Si1329  1  0.597142  0.692298  0.809950  1
  Si  Si1330  1  0.904539  0.192290  0.809684  1
  Si  Si1331  1  0.904053  0.807823  0.809782  1
  Si  Si1332  1  0.597637  0.307504  0.810098  1
  Si  Si1333  1  0.560471  0.612211  0.835447  1
  Si  Si1334  1  0.561252  0.389830  0.835475  1
  Si  Si1335  1  0.693901  0.214039  0.797587  1
  Si  Si1336  1  0.693550  0.713300  0.769949  1
  Si  Si1337  1  0.807417  0.713568  0.797581  1
  Si  Si1338  1  0.807723  0.213343  0.769923  1
  Si  Si1339  1  0.807562  0.786198  0.769966  1
  Si  Si1340  1  0.807912  0.286762  0.797511  1
  Si  Si1341  1  0.693726  0.286191  0.769938  1
  Si  Si1342  1  0.693417  0.786469  0.797548  1
  Si  Si1343  1  0.692286  0.000000  0.790191  1
  Si  Si1344  1  0.692948  0.499698  0.777401  1
  Si  Si1345  1  0.802804  0.500210  0.790094  1
  Si  Si1346  1  0.801571  0.000000  0.777312  1
  Si  Si1347  1  0.595430  0.000000  0.772347  1
  Si  Si1348  1  0.595890  0.499686  0.795156  1
  Si  Si1349  1  0.899556  0.499916  0.772612  1
  Si  Si1350  1  0.898045  0.000000  0.794868  1
  Si  Si1351  1  0.997333  0.000000  0.778148  1
  Si  Si1352  1  0.500032  0.788030  0.797532  1
  H  H1353  1  0.571857  0.635861  0.047166  1
  H  H1354  1  0.572672  0.366203  0.047190  1
  H  H1355  1  0.087549  0.170949  0.072711  1
  H  H1356  1  0.087407  0.829434  0.072706  1
  H  H1357  1  0.427793  0.633968  0.047292  1
  H  H1358  1  0.428612  0.364355  0.047250  1
  H  H1359  1  0.910792  0.170094  0.072305  1
  H  H1360  1  0.910641  0.830532  0.072340  1
  H  H1361  1  0.090068  0.169464  0.833190  1
  H  H1362  1  0.089841  0.829929  0.833221  1
  H  H1363  1  0.913156  0.170371  0.832693  1
  H  H1364  1  0.912777  0.829913  0.832785  1
  H  H1365  1  0.571857  0.635861  0.858376  1
  H  H1366  1  0.572672  0.366203  0.858400  1
  H  H1367  1  0.427793  0.633968  0.858503  1
  H  H1368  1  0.428612  0.364355  0.858460  1
