# generated using pymatgen
data_Si36H2O73
_symmetry_space_group_name_H-M   'P 1'
_cell_length_a   25.48081259
_cell_length_b   13.88888375
_cell_length_c   72.59868527
_cell_angle_alpha   90.00000000
_cell_angle_beta   90.00000000
_cell_angle_gamma   90.00000000
_symmetry_Int_Tables_number   1
_chemical_formula_structural   Si36H2O73
_chemical_formula_sum   'Si288 H16 O584'
_cell_volume   25692.6779044
_cell_formula_units_Z   8
loop_
 _symmetry_equiv_pos_site_id
 _symmetry_equiv_pos_as_xyz
  1  'x, y, z'
loop_
 _atom_site_type_symbol
 _atom_site_label
 _atom_site_symmetry_multiplicity
 _atom_site_fract_x
 _atom_site_fract_y
 _atom_site_fract_z
 _atom_site_occupancy
  O  O1  1  0.087549  0.170949  0.081861  1
  O  O2  1  0.411670  0.669817  0.081777  1
  O  O3  1  0.412361  0.329144  0.081796  1
  O  O4  1  0.087407  0.829434  0.081853  1
  O  O5  1  0.095008  0.092322  0.112736  1
  O  O6  1  0.094979  0.592352  0.169788  1
  O  O7  1  0.404113  0.591989  0.112705  1
  O  O8  1  0.403688  0.091824  0.169993  1
  O  O9  1  0.405051  0.907397  0.169615  1
  O  O10  1  0.404852  0.407549  0.112738  1
  O  O11  1  0.095119  0.407927  0.169805  1
  O  O12  1  0.095112  0.907918  0.112723  1
  O  O13  1  0.149915  0.242062  0.108061  1
  O  O14  1  0.350001  0.742857  0.108006  1
  O  O15  1  0.350290  0.257356  0.108062  1
  O  O16  1  0.149721  0.757861  0.108019  1
  O  O17  1  0.050279  0.252153  0.111476  1
  O  O18  1  0.050150  0.752111  0.171040  1
  O  O19  1  0.449681  0.751077  0.111226  1
  O  O20  1  0.449747  0.250747  0.171120  1
  O  O21  1  0.449881  0.747931  0.171348  1
  O  O22  1  0.449949  0.248087  0.111332  1
  O  O23  1  0.050219  0.248242  0.171087  1
  O  O24  1  0.050108  0.748269  0.111456  1
  O  O25  1  0.499435  0.901652  0.122003  1
  O  O26  1  0.190289  0.900521  0.160971  1
  O  O27  1  0.190260  0.400494  0.121544  1
  O  O28  1  0.308524  0.400644  0.161003  1
  O  O29  1  0.308535  0.900701  0.121505  1
  O  O30  1  0.308782  0.099634  0.121552  1
  O  O31  1  0.308822  0.599562  0.160944  1
  O  O32  1  0.190174  0.599451  0.121504  1
  O  O33  1  0.190208  0.099471  0.161012  1
  O  O34  1  0.151312  0.000000  0.135445  1
  O  O35  1  0.151266  0.500135  0.147071  1
  O  O36  1  0.349525  0.499484  0.135807  1
  O  O37  1  0.349602  0.000000  0.146668  1
  O  O38  1  0.250589  0.000000  0.141762  1
  O  O39  1  0.250545  0.500287  0.140759  1
  O  O40  1  0.181350  0.250003  0.141282  1
  O  O41  1  0.181242  0.750015  0.141238  1
  O  O42  1  0.318526  0.750109  0.141219  1
  O  O43  1  0.318678  0.250072  0.141298  1
  O  O44  1  0.249977  0.249463  0.166023  1
  O  O45  1  0.249856  0.749603  0.116493  1
  O  O46  1  0.249946  0.750388  0.165965  1
  O  O47  1  0.250085  0.250589  0.116552  1
  O  O48  1  0.050637  0.000000  0.137999  1
  O  O49  1  0.050600  0.499913  0.144533  1
  O  O50  1  0.449712  0.500663  0.137860  1
  O  O51  1  0.449844  0.002369  0.144734  1
  O  O52  1  0.499936  0.401462  0.160577  1
  O  O53  1  0.588660  0.670468  0.081644  1
  O  O54  1  0.910792  0.170094  0.081269  1
  O  O55  1  0.910641  0.830532  0.081319  1
  O  O56  1  0.589391  0.330694  0.081591  1
  O  O57  1  0.595077  0.592848  0.112713  1
  O  O58  1  0.595229  0.092717  0.169728  1
  O  O59  1  0.904755  0.092162  0.112310  1
  O  O60  1  0.904821  0.592190  0.170204  1
  O  O61  1  0.904990  0.407696  0.170131  1
  O  O62  1  0.904998  0.907654  0.112426  1
  O  O63  1  0.596166  0.907975  0.170025  1
  O  O64  1  0.596194  0.408103  0.112587  1
  O  O65  1  0.650048  0.742834  0.108049  1
  O  O66  1  0.850126  0.242457  0.107897  1
  O  O67  1  0.849918  0.757923  0.107916  1
  O  O68  1  0.650361  0.256990  0.107979  1
  O  O69  1  0.550075  0.752769  0.110647  1
  O  O70  1  0.949982  0.251869  0.110383  1
  O  O71  1  0.949874  0.752018  0.172161  1
  O  O72  1  0.949931  0.247852  0.172178  1
  O  O73  1  0.949816  0.747773  0.110338  1
  O  O74  1  0.550277  0.748546  0.171835  1
  O  O75  1  0.550349  0.248803  0.110539  1
  O  O76  1  0.501847  0.750002  0.141260  1
  O  O77  1  0.502650  0.250153  0.141253  1
  O  O78  1  0.996800  0.750019  0.141249  1
  O  O79  1  0.501156  0.098630  0.121968  1
  O  O80  1  0.000000  0.901670  0.160475  1
  O  O81  1  0.000000  0.401629  0.122041  1
  O  O82  1  0.000000  0.598395  0.122012  1
  O  O83  1  0.691419  0.400628  0.160899  1
  O  O84  1  0.691466  0.900450  0.121602  1
  O  O85  1  0.810317  0.900735  0.160905  1
  O  O86  1  0.810281  0.400739  0.121637  1
  O  O87  1  0.810225  0.599472  0.121647  1
  O  O88  1  0.810187  0.099458  0.160888  1
  O  O89  1  0.691681  0.099323  0.121572  1
  O  O90  1  0.691701  0.599464  0.160974  1
  O  O91  1  0.650667  0.500757  0.135720  1
  O  O92  1  0.650721  0.000000  0.146805  1
  O  O93  1  0.848806  0.000000  0.135185  1
  O  O94  1  0.848762  0.500055  0.147360  1
  O  O95  1  0.749655  0.499926  0.140751  1
  O  O96  1  0.749681  -0.000000  0.141769  1
  O  O97  1  0.681412  0.750019  0.141302  1
  O  O98  1  0.681564  0.249999  0.141226  1
  O  O99  1  0.819263  0.250056  0.141256  1
  O  O100  1  0.819139  0.750066  0.141272  1
  O  O101  1  0.750240  0.750957  0.165952  1
  O  O102  1  0.750378  0.250705  0.116585  1
  O  O103  1  0.750277  0.249489  0.165904  1
  O  O104  1  0.750140  0.749187  0.116623  1
  O  O105  1  0.550546  0.498911  0.137773  1
  O  O106  1  0.550595  0.998246  0.144762  1
  O  O107  1  0.949324  0.000000  0.137630  1
  O  O108  1  0.949288  0.500368  0.144888  1
  O  O109  1  0.550157  0.252376  0.172012  1
  O  O110  1  0.996970  0.250040  0.141284  1
  O  O111  1  0.500690  0.598472  0.160547  1
  O  O112  1  -0.000000  0.098399  0.160515  1
  O  O113  1  0.089787  0.670180  0.274722  1
  O  O114  1  0.087457  0.671018  0.200654  1
  O  O115  1  0.412531  0.170903  0.275069  1
  O  O116  1  0.412258  0.171083  0.200784  1
  O  O117  1  0.411760  0.830401  0.200678  1
  O  O118  1  0.410978  0.831834  0.274818  1
  O  O119  1  0.087495  0.329528  0.200672  1
  O  O120  1  0.089869  0.329875  0.274682  1
  O  O121  1  0.150949  0.744013  0.301074  1
  O  O122  1  0.149794  0.742186  0.174460  1
  O  O123  1  0.350964  0.242985  0.301312  1
  O  O124  1  0.350144  0.243206  0.174547  1
  O  O125  1  0.350141  0.757555  0.174422  1
  O  O126  1  0.350925  0.756441  0.301194  1
  O  O127  1  0.149840  0.257959  0.174502  1
  O  O128  1  0.151003  0.257659  0.301298  1
  O  O129  1  0.001034  0.624058  0.261752  1
  O  O130  1  0.499743  0.876190  0.261623  1
  O  O131  1  0.072079  0.500127  0.261249  1
  O  O132  1  0.070512  0.500314  0.214096  1
  O  O133  1  0.429098  0.001069  0.261386  1
  O  O134  1  0.429279  0.000000  0.214184  1
  O  O135  1  0.072231  0.635081  0.237693  1
  O  O136  1  0.428557  0.135821  0.237861  1
  O  O137  1  0.427852  0.866211  0.237739  1
  O  O138  1  0.072179  0.365353  0.237675  1
  O  O139  1  0.001013  0.376215  0.261723  1
  O  O140  1  0.589219  0.169764  0.274871  1
  O  O141  1  0.589291  0.169400  0.200860  1
  O  O142  1  0.913089  0.670528  0.275466  1
  O  O143  1  0.910691  0.669974  0.201256  1
  O  O144  1  0.910716  0.330425  0.201221  1
  O  O145  1  0.912961  0.329778  0.275357  1
  O  O146  1  0.588778  0.829610  0.200958  1
  O  O147  1  0.588028  0.828943  0.275070  1
  O  O148  1  0.650725  0.243239  0.301199  1
  O  O149  1  0.650218  0.242793  0.174456  1
  O  O150  1  0.851064  0.742567  0.301516  1
  O  O151  1  0.849994  0.742292  0.174634  1
  O  O152  1  0.850032  0.257787  0.174621  1
  O  O153  1  0.851086  0.256873  0.301381  1
  O  O154  1  0.650198  0.756881  0.174576  1
  O  O155  1  0.650571  0.756207  0.301173  1
  O  O156  1  -0.000000  0.624271  0.214307  1
  O  O157  1  0.571155  0.000000  0.261553  1
  O  O158  1  0.571396  0.000000  0.214371  1
  O  O159  1  0.929914  0.500220  0.261917  1
  O  O160  1  0.928244  0.500448  0.214761  1
  O  O161  1  0.572624  0.134146  0.237898  1
  O  O162  1  0.928156  0.635233  0.238365  1
  O  O163  1  0.928152  0.365444  0.238299  1
  O  O164  1  0.571895  0.864526  0.238007  1
  O  O165  1  0.500542  0.124179  0.261607  1
  O  O166  1  -0.000000  0.376531  0.214255  1
  O  O167  1  0.500616  0.124137  0.214135  1
  O  O168  1  0.500080  0.876145  0.214126  1
  O  O169  1  0.090068  0.169464  0.394364  1
  O  O170  1  0.411065  0.668586  0.394222  1
  O  O171  1  0.412681  0.329154  0.394065  1
  O  O172  1  0.089841  0.829929  0.394408  1
  O  O173  1  0.098175  0.592188  0.305682  1
  O  O174  1  0.099290  0.092066  0.363305  1
  O  O175  1  0.404383  0.091941  0.306045  1
  O  O176  1  0.405278  0.592667  0.362940  1
  O  O177  1  0.405403  0.407748  0.363051  1
  O  O178  1  0.404463  0.907217  0.306187  1
  O  O179  1  0.097535  0.907681  0.363405  1
  O  O180  1  0.096123  0.407651  0.305655  1
  O  O181  1  0.151179  0.244295  0.368070  1
  O  O182  1  0.350667  0.742790  0.367798  1
  O  O183  1  0.351306  0.256961  0.367807  1
  O  O184  1  0.150873  0.756705  0.367861  1
  O  O185  1  0.051083  0.750942  0.303854  1
  O  O186  1  0.051294  0.250019  0.365259  1
  O  O187  1  0.450539  0.251235  0.304662  1
  O  O188  1  0.450593  0.752454  0.365380  1
  O  O189  1  0.450858  0.247957  0.364571  1
  O  O190  1  0.450923  0.748381  0.303610  1
  O  O191  1  0.050898  0.748491  0.365433  1
  O  O192  1  0.051111  0.247302  0.303618  1
  O  O193  1  0.004011  0.749282  0.334648  1
  O  O194  1  0.004348  0.250214  0.334441  1
  O  O195  1  0.497449  0.749537  0.334512  1
  O  O196  1  0.002443  0.901536  0.315719  1
  O  O197  1  0.499698  0.624075  0.407498  1
  O  O198  1  0.072002  0.000000  0.407828  1
  O  O199  1  0.429056  0.499188  0.407706  1
  O  O200  1  0.192405  0.400974  0.354397  1
  O  O201  1  0.192988  0.900827  0.314572  1
  O  O202  1  0.309415  0.900573  0.354145  1
  O  O203  1  0.309882  0.400508  0.315017  1
  O  O204  1  0.310188  0.598843  0.314977  1
  O  O205  1  0.309714  0.099131  0.354221  1
  O  O206  1  0.191934  0.099780  0.314767  1
  O  O207  1  0.191328  0.599616  0.354148  1
  O  O208  1  0.145195  0.497783  0.330393  1
  O  O209  1  0.142544  0.998212  0.337633  1
  O  O210  1  0.342832  -0.000000  0.327631  1
  O  O211  1  0.344629  0.499679  0.341377  1
  O  O212  1  0.245681  0.500382  0.332826  1
  O  O213  1  0.243958  0.000000  0.336806  1
  O  O214  1  0.182050  0.750543  0.334428  1
  O  O215  1  0.182256  0.250004  0.334681  1
  O  O216  1  0.319651  0.249719  0.334591  1
  O  O217  1  0.319569  0.750002  0.334493  1
  O  O218  1  0.250746  0.749590  0.359164  1
  O  O219  1  0.250869  0.250100  0.309906  1
  O  O220  1  0.251185  0.250164  0.359374  1
  O  O221  1  0.250934  0.748977  0.309746  1
  O  O222  1  0.044182  0.501425  0.328843  1
  O  O223  1  0.042166  0.001022  0.341038  1
  O  O224  1  0.442376  0.000000  0.332714  1
  O  O225  1  0.444238  0.499823  0.336549  1
  O  O226  1  0.002715  0.401299  0.353679  1
  O  O227  1  0.001096  0.124128  0.407343  1
  O  O228  1  0.000000  0.876023  0.407382  1
  O  O229  1  0.001671  0.597985  0.353851  1
  O  O230  1  0.001647  0.097815  0.315560  1
  O  O231  1  0.587836  0.671697  0.394060  1
  O  O232  1  0.913156  0.170371  0.393638  1
  O  O233  1  0.912777  0.829913  0.393772  1
  O  O234  1  0.589314  0.330494  0.394234  1
  O  O235  1  0.597231  0.092616  0.305896  1
  O  O236  1  0.597232  0.591534  0.363384  1
  O  O237  1  0.905805  0.592570  0.306492  1
  O  O238  1  0.904799  0.092432  0.362609  1
  O  O239  1  0.904469  0.907624  0.362732  1
  O  O240  1  0.905147  0.407561  0.306369  1
  O  O241  1  0.595742  0.407091  0.363179  1
  O  O242  1  0.598696  0.908300  0.305848  1
  O  O243  1  0.650256  0.743222  0.367833  1
  O  O244  1  0.851298  0.243273  0.367647  1
  O  O245  1  0.850751  0.757034  0.367782  1
  O  O246  1  0.650891  0.257677  0.367885  1
  O  O247  1  0.550823  0.251830  0.303924  1
  O  O248  1  0.550845  0.750648  0.364220  1
  O  O249  1  0.950758  0.752614  0.304915  1
  O  O250  1  0.950992  0.251629  0.364147  1
  O  O251  1  0.950470  0.748282  0.364323  1
  O  O252  1  0.950734  0.247902  0.304784  1
  O  O253  1  0.551118  0.246660  0.365195  1
  O  O254  1  0.551187  0.750006  0.304902  1
  O  O255  1  0.503084  0.250589  0.334587  1
  O  O256  1  0.928101  0.865483  0.430826  1
  O  O257  1  0.928232  0.135282  0.430741  1
  O  O258  1  0.501168  0.401857  0.315373  1
  O  O259  1  0.571236  0.501136  0.407563  1
  O  O260  1  0.929982  0.000000  0.407200  1
  O  O261  1  0.571857  0.635861  0.431140  1
  O  O262  1  0.691857  0.900707  0.354431  1
  O  O263  1  0.691681  0.400386  0.314756  1
  O  O264  1  0.809789  0.400921  0.354160  1
  O  O265  1  0.809057  0.900423  0.314882  1
  O  O266  1  0.809214  0.099135  0.314865  1
  O  O267  1  0.809332  0.599402  0.354236  1
  O  O268  1  0.691338  0.599152  0.314831  1
  O  O269  1  0.692439  0.099751  0.354539  1
  O  O270  1  0.642336  0.001428  0.331553  1
  O  O271  1  0.645369  0.498812  0.338778  1
  O  O272  1  0.844700  0.500517  0.327961  1
  O  O273  1  0.842848  0.000000  0.341292  1
  O  O274  1  0.743778  0.000000  0.332365  1
  O  O275  1  0.745645  0.499852  0.336157  1
  O  O276  1  0.682207  0.249686  0.334564  1
  O  O277  1  0.681888  0.750267  0.334536  1
  O  O278  1  0.818959  0.750150  0.334622  1
  O  O279  1  0.819265  0.249935  0.334519  1
  O  O280  1  0.750899  0.250579  0.359334  1
  O  O281  1  0.750660  0.749181  0.309800  1
  O  O282  1  0.750372  0.749916  0.359364  1
  O  O283  1  0.750781  0.250160  0.309759  1
  O  O284  1  0.541980  0.998862  0.328252  1
  O  O285  1  0.544209  0.501452  0.339931  1
  O  O286  1  0.944401  0.499089  0.332859  1
  O  O287  1  0.942637  0.000000  0.336104  1
  O  O288  1  0.501137  0.097820  0.353415  1
  O  O289  1  0.500627  0.598586  0.315253  1
  O  O290  1  0.500588  0.901473  0.353483  1
  O  O291  1  0.500585  0.376271  0.407493  1
  O  O292  1  0.572672  0.366203  0.431175  1
  O  O293  1  0.087549  0.170949  0.468440  1
  O  O294  1  0.411670  0.669817  0.468356  1
  O  O295  1  0.412361  0.329144  0.468376  1
  O  O296  1  0.087407  0.829434  0.468433  1
  O  O297  1  0.095008  0.092322  0.499315  1
  O  O298  1  0.094979  0.592352  0.556368  1
  O  O299  1  0.404113  0.591989  0.499285  1
  O  O300  1  0.403688  0.091824  0.556572  1
  O  O301  1  0.405051  0.907397  0.556194  1
  O  O302  1  0.404852  0.407549  0.499318  1
  O  O303  1  0.095119  0.407927  0.556385  1
  O  O304  1  0.095112  0.907918  0.499303  1
  O  O305  1  0.149915  0.242062  0.494641  1
  O  O306  1  0.350001  0.742857  0.494586  1
  O  O307  1  0.350290  0.257356  0.494642  1
  O  O308  1  0.149721  0.757861  0.494599  1
  O  O309  1  0.050279  0.252153  0.498056  1
  O  O310  1  0.050150  0.752111  0.557620  1
  O  O311  1  0.449681  0.751077  0.497805  1
  O  O312  1  0.449747  0.250747  0.557700  1
  O  O313  1  0.449881  0.747931  0.557928  1
  O  O314  1  0.449949  0.248087  0.497912  1
  O  O315  1  0.050219  0.248242  0.557666  1
  O  O316  1  0.050108  0.748269  0.498035  1
  O  O317  1  0.427793  0.633968  0.431324  1
  O  O318  1  0.499435  0.901652  0.508583  1
  O  O319  1  0.070534  0.000000  0.455012  1
  O  O320  1  0.429270  0.499220  0.454912  1
  O  O321  1  0.072320  0.134943  0.431401  1
  O  O322  1  0.428612  0.364355  0.431263  1
  O  O323  1  0.072142  0.865281  0.431432  1
  O  O324  1  0.190289  0.900521  0.547551  1
  O  O325  1  0.190260  0.400494  0.508124  1
  O  O326  1  0.308524  0.400644  0.547582  1
  O  O327  1  0.308535  0.900701  0.508085  1
  O  O328  1  0.308782  0.099634  0.508132  1
  O  O329  1  0.308822  0.599562  0.547523  1
  O  O330  1  0.190174  0.599451  0.508084  1
  O  O331  1  0.190208  0.099471  0.547592  1
  O  O332  1  0.151312  0.000000  0.522025  1
  O  O333  1  0.151266  0.500135  0.533651  1
  O  O334  1  0.349525  0.499484  0.522386  1
  O  O335  1  0.349602  0.000000  0.533247  1
  O  O336  1  0.250589  0.000000  0.528342  1
  O  O337  1  0.250545  0.500287  0.527339  1
  O  O338  1  0.181350  0.250003  0.527862  1
  O  O339  1  0.181242  0.750015  0.527817  1
  O  O340  1  0.318526  0.750109  0.527799  1
  O  O341  1  0.318678  0.250072  0.527878  1
  O  O342  1  0.249977  0.249463  0.552603  1
  O  O343  1  0.249856  0.749603  0.503073  1
  O  O344  1  0.249946  0.750388  0.552545  1
  O  O345  1  0.250085  0.250589  0.503132  1
  O  O346  1  0.050637  0.000000  0.524579  1
  O  O347  1  0.050600  0.499913  0.531113  1
  O  O348  1  0.449712  0.500663  0.524440  1
  O  O349  1  0.449844  0.002369  0.531314  1
  O  O350  1  0.499936  0.401462  0.547157  1
  O  O351  1  0.588660  0.670468  0.468224  1
  O  O352  1  0.910792  0.170094  0.467848  1
  O  O353  1  0.910641  0.830532  0.467899  1
  O  O354  1  0.589391  0.330694  0.468170  1
  O  O355  1  0.595077  0.592848  0.499292  1
  O  O356  1  0.595229  0.092717  0.556308  1
  O  O357  1  0.904755  0.092162  0.498890  1
  O  O358  1  0.904821  0.592190  0.556784  1
  O  O359  1  0.904990  0.407696  0.556711  1
  O  O360  1  0.904998  0.907654  0.499006  1
  O  O361  1  0.596166  0.907975  0.556605  1
  O  O362  1  0.596194  0.408103  0.499167  1
  O  O363  1  0.650048  0.742834  0.494629  1
  O  O364  1  0.850126  0.242457  0.494477  1
  O  O365  1  0.849918  0.757923  0.494495  1
  O  O366  1  0.650361  0.256990  0.494559  1
  O  O367  1  0.550075  0.752769  0.497227  1
  O  O368  1  0.949982  0.251869  0.496963  1
  O  O369  1  0.949874  0.752018  0.558740  1
  O  O370  1  0.949931  0.247852  0.558758  1
  O  O371  1  0.949816  0.747773  0.496917  1
  O  O372  1  0.550277  0.748546  0.558415  1
  O  O373  1  0.550349  0.248803  0.497119  1
  O  O374  1  0.501847  0.750002  0.527840  1
  O  O375  1  0.502650  0.250153  0.527833  1
  O  O376  1  0.996800  0.750019  0.527829  1
  O  O377  1  0.501156  0.098630  0.508548  1
  O  O378  1  -0.000000  0.901670  0.547055  1
  O  O379  1  -0.000000  0.401629  0.508621  1
  O  O380  1  0.500036  0.624043  0.454969  1
  O  O381  1  0.000000  0.598395  0.508592  1
  O  O382  1  -0.000000  0.876532  0.454861  1
  O  O383  1  0.571390  0.500902  0.454735  1
  O  O384  1  0.928268  0.000000  0.454354  1
  O  O385  1  0.691419  0.400628  0.547479  1
  O  O386  1  0.691466  0.900450  0.508182  1
  O  O387  1  0.810317  0.900735  0.547485  1
  O  O388  1  0.810281  0.400739  0.508217  1
  O  O389  1  0.810225  0.599472  0.508227  1
  O  O390  1  0.810187  0.099458  0.547468  1
  O  O391  1  0.691681  0.099323  0.508151  1
  O  O392  1  0.691701  0.599464  0.547554  1
  O  O393  1  0.650667  0.500757  0.522300  1
  O  O394  1  0.650721  0.000000  0.533385  1
  O  O395  1  0.848806  0.000000  0.521765  1
  O  O396  1  0.848762  0.500055  0.533940  1
  O  O397  1  0.749655  0.499926  0.527331  1
  O  O398  1  0.749681  0.000000  0.528349  1
  O  O399  1  0.681412  0.750019  0.527882  1
  O  O400  1  0.681564  0.249999  0.527806  1
  O  O401  1  0.819263  0.250056  0.527836  1
  O  O402  1  0.819139  0.750066  0.527851  1
  O  O403  1  0.750240  0.750957  0.552531  1
  O  O404  1  0.750378  0.250705  0.503165  1
  O  O405  1  0.750277  0.249489  0.552484  1
  O  O406  1  0.750140  0.749187  0.503202  1
  O  O407  1  0.550546  0.498911  0.524353  1
  O  O408  1  0.550595  0.998246  0.531342  1
  O  O409  1  0.949324  0.000000  0.524209  1
  O  O410  1  0.949288  0.500368  0.531468  1
  O  O411  1  0.550157  0.252376  0.558592  1
  O  O412  1  0.996970  0.250040  0.527864  1
  O  O413  1  0.500651  0.376045  0.454959  1
  O  O414  1  0.500690  0.598472  0.547127  1
  O  O415  1  -0.000000  0.098399  0.547095  1
  O  O416  1  -0.000000  0.124288  0.454798  1
  O  O417  1  0.089787  0.670180  0.661302  1
  O  O418  1  0.087457  0.671018  0.587234  1
  O  O419  1  0.412531  0.170903  0.661649  1
  O  O420  1  0.412258  0.171083  0.587364  1
  O  O421  1  0.411760  0.830401  0.587258  1
  O  O422  1  0.410978  0.831834  0.661398  1
  O  O423  1  0.087495  0.329528  0.587252  1
  O  O424  1  0.089869  0.329875  0.661261  1
  O  O425  1  0.150949  0.744013  0.687653  1
  O  O426  1  0.149794  0.742186  0.561040  1
  O  O427  1  0.350964  0.242985  0.687892  1
  O  O428  1  0.350144  0.243206  0.561127  1
  O  O429  1  0.350141  0.757555  0.561002  1
  O  O430  1  0.350925  0.756441  0.687774  1
  O  O431  1  0.149840  0.257959  0.561082  1
  O  O432  1  0.151003  0.257659  0.687878  1
  O  O433  1  0.001034  0.624058  0.648332  1
  O  O434  1  0.499743  0.876190  0.648203  1
  O  O435  1  0.072079  0.500127  0.647828  1
  O  O436  1  0.070512  0.500314  0.600676  1
  O  O437  1  0.429098  0.001069  0.647966  1
  O  O438  1  0.429279  0.000000  0.600763  1
  O  O439  1  0.072231  0.635081  0.624273  1
  O  O440  1  0.428557  0.135821  0.624441  1
  O  O441  1  0.427852  0.866211  0.624319  1
  O  O442  1  0.072179  0.365353  0.624254  1
  O  O443  1  0.001013  0.376215  0.648302  1
  O  O444  1  0.589219  0.169764  0.661451  1
  O  O445  1  0.589291  0.169400  0.587440  1
  O  O446  1  0.913089  0.670528  0.662046  1
  O  O447  1  0.910691  0.669974  0.587836  1
  O  O448  1  0.910716  0.330425  0.587800  1
  O  O449  1  0.912961  0.329778  0.661937  1
  O  O450  1  0.588778  0.829610  0.587538  1
  O  O451  1  0.588028  0.828943  0.661649  1
  O  O452  1  0.650725  0.243239  0.687779  1
  O  O453  1  0.650218  0.242793  0.561035  1
  O  O454  1  0.851064  0.742567  0.688096  1
  O  O455  1  0.849994  0.742292  0.561213  1
  O  O456  1  0.850032  0.257787  0.561201  1
  O  O457  1  0.851086  0.256873  0.687961  1
  O  O458  1  0.650198  0.756881  0.561156  1
  O  O459  1  0.650571  0.756207  0.687752  1
  O  O460  1  -0.000000  0.624271  0.600887  1
  O  O461  1  0.571155  0.000000  0.648133  1
  O  O462  1  0.571396  0.000000  0.600951  1
  O  O463  1  0.929914  0.500220  0.648497  1
  O  O464  1  0.928244  0.500448  0.601341  1
  O  O465  1  0.572624  0.134146  0.624478  1
  O  O466  1  0.928156  0.635233  0.624945  1
  O  O467  1  0.928152  0.365444  0.624878  1
  O  O468  1  0.571895  0.864526  0.624587  1
  O  O469  1  0.500542  0.124179  0.648186  1
  O  O470  1  -0.000000  0.376531  0.600835  1
  O  O471  1  0.500616  0.124137  0.600715  1
  O  O472  1  0.500080  0.876145  0.600706  1
  O  O473  1  0.090068  0.169464  0.780943  1
  O  O474  1  0.411065  0.668586  0.780802  1
  O  O475  1  0.412681  0.329154  0.780644  1
  O  O476  1  0.089841  0.829929  0.780988  1
  O  O477  1  0.098175  0.592188  0.692262  1
  O  O478  1  0.099290  0.092066  0.749885  1
  O  O479  1  0.404383  0.091941  0.692625  1
  O  O480  1  0.405278  0.592667  0.749520  1
  O  O481  1  0.405403  0.407748  0.749631  1
  O  O482  1  0.404463  0.907217  0.692767  1
  O  O483  1  0.097535  0.907681  0.749984  1
  O  O484  1  0.096123  0.407651  0.692235  1
  O  O485  1  0.151179  0.244295  0.754649  1
  O  O486  1  0.350667  0.742790  0.754378  1
  O  O487  1  0.351306  0.256961  0.754386  1
  O  O488  1  0.150873  0.756705  0.754441  1
  O  O489  1  0.051083  0.750942  0.690434  1
  O  O490  1  0.051294  0.250019  0.751839  1
  O  O491  1  0.450539  0.251235  0.691241  1
  O  O492  1  0.450593  0.752454  0.751959  1
  O  O493  1  0.450858  0.247957  0.751151  1
  O  O494  1  0.450923  0.748381  0.690190  1
  O  O495  1  0.050898  0.748491  0.752012  1
  O  O496  1  0.051111  0.247302  0.690198  1
  O  O497  1  0.004011  0.749282  0.721228  1
  O  O498  1  0.004348  0.250214  0.721021  1
  O  O499  1  0.497449  0.749537  0.721092  1
  O  O500  1  0.002443  0.901536  0.702299  1
  O  O501  1  0.192405  0.400974  0.740977  1
  O  O502  1  0.192988  0.900827  0.701152  1
  O  O503  1  0.309415  0.900573  0.740724  1
  O  O504  1  0.309882  0.400508  0.701597  1
  O  O505  1  0.310188  0.598843  0.701556  1
  O  O506  1  0.309714  0.099131  0.740801  1
  O  O507  1  0.191934  0.099780  0.701347  1
  O  O508  1  0.191328  0.599616  0.740728  1
  O  O509  1  0.145195  0.497783  0.716973  1
  O  O510  1  0.142544  0.998212  0.724213  1
  O  O511  1  0.342832  0.000000  0.714211  1
  O  O512  1  0.344629  0.499679  0.727957  1
  O  O513  1  0.245681  0.500382  0.719406  1
  O  O514  1  0.243958  0.000000  0.723386  1
  O  O515  1  0.182050  0.750543  0.721008  1
  O  O516  1  0.182256  0.250004  0.721260  1
  O  O517  1  0.319651  0.249719  0.721171  1
  O  O518  1  0.319569  0.750002  0.721073  1
  O  O519  1  0.250746  0.749590  0.745744  1
  O  O520  1  0.250869  0.250100  0.696486  1
  O  O521  1  0.251185  0.250164  0.745954  1
  O  O522  1  0.250934  0.748977  0.696326  1
  O  O523  1  0.044182  0.501425  0.715423  1
  O  O524  1  0.042166  0.001022  0.727617  1
  O  O525  1  0.442376  0.000000  0.719294  1
  O  O526  1  0.444238  0.499823  0.723128  1
  O  O527  1  0.002715  0.401299  0.740259  1
  O  O528  1  0.001671  0.597985  0.740431  1
  O  O529  1  0.001647  0.097815  0.702140  1
  O  O530  1  0.587836  0.671697  0.780639  1
  O  O531  1  0.913156  0.170371  0.780217  1
  O  O532  1  0.912777  0.829913  0.780351  1
  O  O533  1  0.589314  0.330494  0.780814  1
  O  O534  1  0.597231  0.092616  0.692475  1
  O  O535  1  0.597232  0.591534  0.749964  1
  O  O536  1  0.905805  0.592570  0.693071  1
  O  O537  1  0.904799  0.092432  0.749189  1
  O  O538  1  0.904469  0.907624  0.749312  1
  O  O539  1  0.905147  0.407561  0.692949  1
  O  O540  1  0.595742  0.407091  0.749758  1
  O  O541  1  0.598696  0.908300  0.692428  1
  O  O542  1  0.650256  0.743222  0.754413  1
  O  O543  1  0.851298  0.243273  0.754226  1
  O  O544  1  0.850751  0.757034  0.754362  1
  O  O545  1  0.650891  0.257677  0.754465  1
  O  O546  1  0.550823  0.251830  0.690503  1
  O  O547  1  0.550845  0.750648  0.750800  1
  O  O548  1  0.950758  0.752614  0.691495  1
  O  O549  1  0.950992  0.251629  0.750726  1
  O  O550  1  0.950470  0.748282  0.750903  1
  O  O551  1  0.950734  0.247902  0.691363  1
  O  O552  1  0.551118  0.246660  0.751775  1
  O  O553  1  0.551187  0.750006  0.691482  1
  O  O554  1  0.503084  0.250589  0.721167  1
  O  O555  1  0.501168  0.401857  0.701953  1
  O  O556  1  0.691857  0.900707  0.741010  1
  O  O557  1  0.691681  0.400386  0.701336  1
  O  O558  1  0.809789  0.400921  0.740740  1
  O  O559  1  0.809057  0.900423  0.701461  1
  O  O560  1  0.809214  0.099135  0.701444  1
  O  O561  1  0.809332  0.599402  0.740816  1
  O  O562  1  0.691338  0.599152  0.701411  1
  O  O563  1  0.692439  0.099751  0.741119  1
  O  O564  1  0.642336  0.001428  0.718133  1
  O  O565  1  0.645369  0.498812  0.725358  1
  O  O566  1  0.844700  0.500517  0.714541  1
  O  O567  1  0.842848  0.000000  0.727872  1
  O  O568  1  0.743778  0.000000  0.718944  1
  O  O569  1  0.745645  0.499852  0.722736  1
  O  O570  1  0.682207  0.249686  0.721144  1
  O  O571  1  0.681888  0.750267  0.721116  1
  O  O572  1  0.818959  0.750150  0.721202  1
  O  O573  1  0.819265  0.249935  0.721099  1
  O  O574  1  0.750899  0.250579  0.745914  1
  O  O575  1  0.750660  0.749181  0.696379  1
  O  O576  1  0.750372  0.749916  0.745944  1
  O  O577  1  0.750781  0.250160  0.696339  1
  O  O578  1  0.541980  0.998862  0.714832  1
  O  O579  1  0.544209  0.501452  0.726511  1
  O  O580  1  0.944401  0.499089  0.719439  1
  O  O581  1  0.942637  0.000000  0.722684  1
  O  O582  1  0.501137  0.097820  0.739995  1
  O  O583  1  0.500627  0.598586  0.701833  1
  O  O584  1  0.500588  0.901473  0.740063  1
  Si  Si585  1  0.401745  0.499804  0.124744  1
  Si  Si586  1  0.401729  0.000000  0.157779  1
  Si  Si587  1  0.098352  0.000000  0.124742  1
  Si  Si588  1  0.304859  -0.000000  0.131979  1
  Si  Si589  1  0.098325  0.500112  0.157785  1
  Si  Si590  1  0.096416  0.192495  0.103077  1
  Si  Si591  1  0.403113  0.692005  0.102991  1
  Si  Si592  1  0.403593  0.307516  0.103024  1
  Si  Si593  1  0.096300  0.807753  0.103061  1
  Si  Si594  1  0.192815  0.213678  0.161440  1
  Si  Si595  1  0.192723  0.713669  0.121081  1
  Si  Si596  1  0.306965  0.713831  0.161368  1
  Si  Si597  1  0.307081  0.213904  0.121141  1
  Si  Si598  1  0.306825  0.786420  0.121080  1
  Si  Si599  1  0.306926  0.286375  0.161438  1
  Si  Si600  1  0.192895  0.286294  0.121128  1
  Si  Si601  1  0.192798  0.786318  0.161390  1
  Si  Si602  1  0.194963  0.000000  0.150575  1
  Si  Si603  1  0.194923  0.500029  0.131942  1
  Si  Si604  1  0.304844  0.500031  0.150521  1
  Si  Si605  1  -0.000000  0.500049  0.132780  1
  Si  Si606  1  -0.000000  -0.000000  0.149743  1
  Si  Si607  1  0.596906  0.692587  0.102870  1
  Si  Si608  1  0.903059  0.192106  0.102547  1
  Si  Si609  1  0.902951  0.807980  0.102573  1
  Si  Si610  1  0.597499  0.308200  0.102807  1
  Si  Si611  1  0.693313  0.713746  0.161433  1
  Si  Si612  1  0.693431  0.213595  0.121105  1
  Si  Si613  1  0.807476  0.213639  0.161389  1
  Si  Si614  1  0.807388  0.713634  0.121139  1
  Si  Si615  1  0.807555  0.286564  0.121124  1
  Si  Si616  1  0.807463  0.786554  0.161407  1
  Si  Si617  1  0.693179  0.786182  0.121158  1
  Si  Si618  1  0.693297  0.286365  0.161358  1
  Si  Si619  1  0.695294  0.500136  0.150462  1
  Si  Si620  1  0.695324  0.000000  0.132055  1
  Si  Si621  1  0.805479  -0.000000  0.150439  1
  Si  Si622  1  0.805467  0.500086  0.132093  1
  Si  Si623  1  0.598460  0.500297  0.124643  1
  Si  Si624  1  0.598524  0.000000  0.157885  1
  Si  Si625  1  0.901615  0.000000  0.124381  1
  Si  Si626  1  0.901604  0.500055  0.158152  1
  Si  Si627  1  0.000000  0.211876  0.161511  1
  Si  Si628  1  0.000000  0.711875  0.121021  1
  Si  Si629  1  0.500859  0.212140  0.121015  1
  Si  Si630  1  0.500535  0.711967  0.161500  1
  Si  Si631  1  0.500451  0.287941  0.161502  1
  Si  Si632  1  -0.000000  0.788211  0.161473  1
  Si  Si633  1  -0.000000  0.288151  0.121054  1
  Si  Si634  1  0.500121  0.788169  0.121033  1
  Si  Si635  1  0.500253  0.000000  0.132701  1
  Si  Si636  1  0.500223  0.499938  0.149847  1
  Si  Si637  1  0.061622  0.388951  0.258803  1
  Si  Si638  1  0.060159  0.389118  0.216645  1
  Si  Si639  1  0.439133  0.889895  0.258831  1
  Si  Si640  1  0.439383  0.889610  0.216654  1
  Si  Si641  1  0.098240  0.692207  0.295941  1
  Si  Si642  1  0.096314  0.692549  0.179438  1
  Si  Si643  1  0.404090  0.192103  0.296325  1
  Si  Si644  1  0.403251  0.192281  0.179554  1
  Si  Si645  1  0.403409  0.807783  0.179470  1
  Si  Si646  1  0.403624  0.808209  0.296038  1
  Si  Si647  1  0.096406  0.307778  0.179470  1
  Si  Si648  1  0.097995  0.307675  0.295923  1
  Si  Si649  1  0.061625  0.611309  0.258814  1
  Si  Si650  1  0.060185  0.611513  0.216653  1
  Si  Si651  1  0.439808  0.112161  0.258961  1
  Si  Si652  1  0.439876  0.111957  0.216770  1
  Si  Si653  1  0.560516  0.888216  0.259087  1
  Si  Si654  1  0.560778  0.888323  0.216911  1
  Si  Si655  1  0.597758  0.192334  0.296057  1
  Si  Si656  1  0.597191  0.192219  0.179648  1
  Si  Si657  1  0.904524  0.692453  0.296677  1
  Si  Si658  1  0.902981  0.692094  0.179980  1
  Si  Si659  1  0.903044  0.307947  0.179960  1
  Si  Si660  1  0.904362  0.307673  0.296557  1
  Si  Si661  1  0.597241  0.807839  0.179728  1
  Si  Si662  1  0.597589  0.807906  0.296264  1
  Si  Si663  1  0.561192  0.110604  0.258978  1
  Si  Si664  1  0.561272  0.110659  0.216814  1
  Si  Si665  1  0.940242  0.611409  0.259400  1
  Si  Si666  1  0.938779  0.611548  0.217233  1
  Si  Si667  1  0.938752  0.389244  0.217171  1
  Si  Si668  1  0.940236  0.389059  0.259338  1
  Si  Si669  1  0.496646  0.000000  0.342691  1
  Si  Si670  1  0.002230  0.287767  0.354688  1
  Si  Si671  1  0.001980  0.788137  0.314489  1
  Si  Si672  1  0.001791  0.211229  0.314296  1
  Si  Si673  1  0.497644  0.500330  0.326058  1
  Si  Si674  1  0.098628  0.191773  0.373163  1
  Si  Si675  1  0.403603  0.691901  0.372996  1
  Si  Si676  1  0.404466  0.307672  0.372804  1
  Si  Si677  1  0.098095  0.807755  0.373178  1
  Si  Si678  1  0.061687  0.111153  0.410279  1
  Si  Si679  1  0.439084  0.610394  0.410229  1
  Si  Si680  1  0.439861  0.388134  0.410164  1
  Si  Si681  1  0.061559  0.888815  0.410298  1
  Si  Si682  1  0.193633  0.713749  0.354566  1
  Si  Si683  1  0.193802  0.214002  0.314490  1
  Si  Si684  1  0.308125  0.213349  0.354750  1
  Si  Si685  1  0.308021  0.712982  0.314371  1
  Si  Si686  1  0.307939  0.286374  0.314463  1
  Si  Si687  1  0.307753  0.786373  0.354635  1
  Si  Si688  1  0.194106  0.786537  0.314264  1
  Si  Si689  1  0.194191  0.286746  0.354806  1
  Si  Si690  1  0.193075  0.500005  0.343744  1
  Si  Si691  1  0.192469  0.000000  0.325198  1
  Si  Si692  1  0.301889  0.000000  0.343870  1
  Si  Si693  1  0.303093  0.499758  0.325374  1
  Si  Si694  1  0.096193  0.499919  0.317717  1
  Si  Si695  1  0.095737  0.000000  0.351318  1
  Si  Si696  1  0.397872  0.000000  0.318006  1
  Si  Si697  1  0.399424  0.499996  0.351103  1
  Si  Si698  1  0.001598  0.711538  0.354881  1
  Si  Si699  1  0.501208  0.288339  0.314347  1
  Si  Si700  1  0.500243  0.712158  0.314261  1
  Si  Si701  1  0.501348  0.211157  0.354712  1
  Si  Si702  1  0.998347  0.499814  0.343033  1
  Si  Si703  1  0.597142  0.692298  0.372824  1
  Si  Si704  1  0.904539  0.192290  0.372436  1
  Si  Si705  1  0.904053  0.807823  0.372579  1
  Si  Si706  1  0.597637  0.307504  0.373041  1
  Si  Si707  1  0.560471  0.612211  0.410055  1
  Si  Si708  1  0.940305  0.111393  0.409711  1
  Si  Si709  1  0.940173  0.889026  0.409783  1
  Si  Si710  1  0.561252  0.389830  0.410097  1
  Si  Si711  1  0.693901  0.214039  0.354772  1
  Si  Si712  1  0.693550  0.713300  0.314415  1
  Si  Si713  1  0.807417  0.713568  0.354763  1
  Si  Si714  1  0.807723  0.213343  0.314377  1
  Si  Si715  1  0.807562  0.786198  0.314439  1
  Si  Si716  1  0.807912  0.286762  0.354661  1
  Si  Si717  1  0.693726  0.286191  0.314399  1
  Si  Si718  1  0.693417  0.786469  0.354715  1
  Si  Si719  1  0.692286  0.000000  0.343972  1
  Si  Si720  1  0.692948  0.499698  0.325296  1
  Si  Si721  1  0.802804  0.500210  0.343831  1
  Si  Si722  1  0.801571  0.000000  0.325166  1
  Si  Si723  1  0.595430  0.000000  0.317917  1
  Si  Si724  1  0.595890  0.499686  0.351223  1
  Si  Si725  1  0.899556  0.499916  0.318303  1
  Si  Si726  1  0.898045  0.000000  0.350802  1
  Si  Si727  1  0.997333  0.000000  0.326388  1
  Si  Si728  1  0.500032  0.788030  0.354692  1
  Si  Si729  1  0.401745  0.499804  0.511324  1
  Si  Si730  1  0.401729  0.000000  0.544359  1
  Si  Si731  1  0.098352  0.000000  0.511322  1
  Si  Si732  1  0.304859  0.000000  0.518559  1
  Si  Si733  1  0.098325  0.500112  0.544365  1
  Si  Si734  1  0.096416  0.192495  0.489657  1
  Si  Si735  1  0.403113  0.692005  0.489570  1
  Si  Si736  1  0.403593  0.307516  0.489604  1
  Si  Si737  1  0.096300  0.807753  0.489641  1
  Si  Si738  1  0.060265  0.111470  0.452442  1
  Si  Si739  1  0.439350  0.610507  0.452406  1
  Si  Si740  1  0.439899  0.388161  0.452360  1
  Si  Si741  1  0.060097  0.889080  0.452462  1
  Si  Si742  1  0.192815  0.213678  0.548020  1
  Si  Si743  1  0.192723  0.713669  0.507661  1
  Si  Si744  1  0.306965  0.713831  0.547948  1
  Si  Si745  1  0.307081  0.213904  0.507721  1
  Si  Si746  1  0.306825  0.786420  0.507660  1
  Si  Si747  1  0.306926  0.286375  0.548018  1
  Si  Si748  1  0.192895  0.286294  0.507708  1
  Si  Si749  1  0.192798  0.786318  0.547970  1
  Si  Si750  1  0.194963  0.000000  0.537155  1
  Si  Si751  1  0.194923  0.500029  0.518522  1
  Si  Si752  1  0.304844  0.500031  0.537101  1
  Si  Si753  1  -0.000000  0.500049  0.519360  1
  Si  Si754  1  0.000000  0.000000  0.536323  1
  Si  Si755  1  0.596906  0.692587  0.489450  1
  Si  Si756  1  0.903059  0.192106  0.489127  1
  Si  Si757  1  0.902951  0.807980  0.489153  1
  Si  Si758  1  0.597499  0.308200  0.489386  1
  Si  Si759  1  0.560746  0.611942  0.452232  1
  Si  Si760  1  0.938854  0.111633  0.451873  1
  Si  Si761  1  0.938688  0.889318  0.451950  1
  Si  Si762  1  0.561293  0.389607  0.452255  1
  Si  Si763  1  0.693313  0.713746  0.548012  1
  Si  Si764  1  0.693431  0.213595  0.507685  1
  Si  Si765  1  0.807476  0.213639  0.547968  1
  Si  Si766  1  0.807388  0.713634  0.507718  1
  Si  Si767  1  0.807555  0.286564  0.507704  1
  Si  Si768  1  0.807463  0.786554  0.547987  1
  Si  Si769  1  0.693179  0.786182  0.507737  1
  Si  Si770  1  0.693297  0.286365  0.547937  1
  Si  Si771  1  0.695294  0.500136  0.537042  1
  Si  Si772  1  0.695324  0.000000  0.518635  1
  Si  Si773  1  0.805479  0.000000  0.537019  1
  Si  Si774  1  0.805467  0.500086  0.518673  1
  Si  Si775  1  0.598460  0.500297  0.511223  1
  Si  Si776  1  0.598524  0.000000  0.544464  1
  Si  Si777  1  0.901615  0.000000  0.510961  1
  Si  Si778  1  0.901604  0.500055  0.544731  1
  Si  Si779  1  -0.000000  0.211876  0.548090  1
  Si  Si780  1  -0.000000  0.711875  0.507600  1
  Si  Si781  1  0.500859  0.212140  0.507595  1
  Si  Si782  1  0.500535  0.711967  0.548080  1
  Si  Si783  1  0.500451  0.287941  0.548082  1
  Si  Si784  1  0.000000  0.788211  0.548053  1
  Si  Si785  1  -0.000000  0.288151  0.507634  1
  Si  Si786  1  0.500121  0.788169  0.507612  1
  Si  Si787  1  0.500253  0.000000  0.519281  1
  Si  Si788  1  0.500223  0.499938  0.536427  1
  Si  Si789  1  0.061622  0.388951  0.645383  1
  Si  Si790  1  0.060159  0.389118  0.603224  1
  Si  Si791  1  0.439133  0.889895  0.645411  1
  Si  Si792  1  0.439383  0.889610  0.603234  1
  Si  Si793  1  0.098240  0.692207  0.682520  1
  Si  Si794  1  0.096314  0.692549  0.566018  1
  Si  Si795  1  0.404090  0.192103  0.682905  1
  Si  Si796  1  0.403251  0.192281  0.566134  1
  Si  Si797  1  0.403409  0.807783  0.566049  1
  Si  Si798  1  0.403624  0.808209  0.682618  1
  Si  Si799  1  0.096406  0.307778  0.566050  1
  Si  Si800  1  0.097995  0.307675  0.682502  1
  Si  Si801  1  0.061625  0.611309  0.645394  1
  Si  Si802  1  0.060185  0.611513  0.603233  1
  Si  Si803  1  0.439808  0.112161  0.645541  1
  Si  Si804  1  0.439876  0.111957  0.603350  1
  Si  Si805  1  0.560516  0.888216  0.645667  1
  Si  Si806  1  0.560778  0.888323  0.603491  1
  Si  Si807  1  0.597758  0.192334  0.682637  1
  Si  Si808  1  0.597191  0.192219  0.566228  1
  Si  Si809  1  0.904524  0.692453  0.683257  1
  Si  Si810  1  0.902981  0.692094  0.566560  1
  Si  Si811  1  0.903044  0.307947  0.566540  1
  Si  Si812  1  0.904362  0.307673  0.683136  1
  Si  Si813  1  0.597241  0.807839  0.566308  1
  Si  Si814  1  0.597589  0.807906  0.682844  1
  Si  Si815  1  0.561192  0.110604  0.645558  1
  Si  Si816  1  0.561272  0.110659  0.603393  1
  Si  Si817  1  0.940242  0.611409  0.645980  1
  Si  Si818  1  0.938779  0.611548  0.603813  1
  Si  Si819  1  0.938752  0.389244  0.603751  1
  Si  Si820  1  0.940236  0.389059  0.645918  1
  Si  Si821  1  0.496646  0.000000  0.729270  1
  Si  Si822  1  0.002230  0.287767  0.741268  1
  Si  Si823  1  0.001980  0.788137  0.701069  1
  Si  Si824  1  0.001791  0.211229  0.700875  1
  Si  Si825  1  0.497644  0.500330  0.712638  1
  Si  Si826  1  0.098628  0.191773  0.759743  1
  Si  Si827  1  0.403603  0.691901  0.759576  1
  Si  Si828  1  0.404466  0.307672  0.759383  1
  Si  Si829  1  0.098095  0.807755  0.759758  1
  Si  Si830  1  0.193633  0.713749  0.741145  1
  Si  Si831  1  0.193802  0.214002  0.701070  1
  Si  Si832  1  0.308125  0.213349  0.741330  1
  Si  Si833  1  0.308021  0.712982  0.700951  1
  Si  Si834  1  0.307939  0.286374  0.701043  1
  Si  Si835  1  0.307753  0.786373  0.741215  1
  Si  Si836  1  0.194106  0.786537  0.700844  1
  Si  Si837  1  0.194191  0.286746  0.741385  1
  Si  Si838  1  0.193075  0.500005  0.730324  1
  Si  Si839  1  0.192469  -0.000000  0.711778  1
  Si  Si840  1  0.301889  0.000000  0.730449  1
  Si  Si841  1  0.303093  0.499758  0.711954  1
  Si  Si842  1  0.096193  0.499919  0.704297  1
  Si  Si843  1  0.095737  0.000000  0.737898  1
  Si  Si844  1  0.397872  0.000000  0.704585  1
  Si  Si845  1  0.399424  0.499996  0.737682  1
  Si  Si846  1  0.001598  0.711538  0.741460  1
  Si  Si847  1  0.501208  0.288339  0.700927  1
  Si  Si848  1  0.500243  0.712158  0.700841  1
  Si  Si849  1  0.501348  0.211157  0.741292  1
  Si  Si850  1  0.998347  0.499814  0.729613  1
  Si  Si851  1  0.597142  0.692298  0.759404  1
  Si  Si852  1  0.904539  0.192290  0.759016  1
  Si  Si853  1  0.904053  0.807823  0.759159  1
  Si  Si854  1  0.597637  0.307504  0.759621  1
  Si  Si855  1  0.693901  0.214039  0.741352  1
  Si  Si856  1  0.693550  0.713300  0.700994  1
  Si  Si857  1  0.807417  0.713568  0.741343  1
  Si  Si858  1  0.807723  0.213343  0.700956  1
  Si  Si859  1  0.807562  0.786198  0.701019  1
  Si  Si860  1  0.807912  0.286762  0.741240  1
  Si  Si861  1  0.693726  0.286191  0.700979  1
  Si  Si862  1  0.693417  0.786469  0.741295  1
  Si  Si863  1  0.692286  0.000000  0.730552  1
  Si  Si864  1  0.692948  0.499698  0.711876  1
  Si  Si865  1  0.802804  0.500210  0.730411  1
  Si  Si866  1  0.801571  0.000000  0.711746  1
  Si  Si867  1  0.595430  0.000000  0.704496  1
  Si  Si868  1  0.595890  0.499686  0.737803  1
  Si  Si869  1  0.899556  0.499916  0.704883  1
  Si  Si870  1  0.898045  0.000000  0.737382  1
  Si  Si871  1  0.997333  0.000000  0.712968  1
  Si  Si872  1  0.500032  0.788030  0.741272  1
  H  H873  1  0.087549  0.170949  0.069464  1
  H  H874  1  0.411670  0.669817  0.069380  1
  H  H875  1  0.412361  0.329144  0.069399  1
  H  H876  1  0.087407  0.829434  0.069456  1
  H  H877  1  0.588660  0.670468  0.069248  1
  H  H878  1  0.910792  0.170094  0.068872  1
  H  H879  1  0.910641  0.830532  0.068922  1
  H  H880  1  0.589391  0.330694  0.069194  1
  H  H881  1  0.090068  0.169464  0.793340  1
  H  H882  1  0.411065  0.668586  0.793199  1
  H  H883  1  0.412681  0.329154  0.793041  1
  H  H884  1  0.089841  0.829929  0.793385  1
  H  H885  1  0.587836  0.671697  0.793036  1
  H  H886  1  0.913156  0.170371  0.792614  1
  H  H887  1  0.912777  0.829913  0.792748  1
  H  H888  1  0.589314  0.330494  0.793211  1
