# generated using pymatgen
data_Si36H2O73
_symmetry_space_group_name_H-M   'P 1'
_cell_length_a   11.39954126
_cell_length_b   25.27156065
_cell_length_c   79.79496418
_cell_angle_alpha   90.00000000
_cell_angle_beta   90.00000000
_cell_angle_gamma   90.00000000
_symmetry_Int_Tables_number   1
_chemical_formula_structural   Si36H2O73
_chemical_formula_sum   'Si288 H16 O584'
_cell_volume   22987.6682866
_cell_formula_units_Z   8
loop_
 _symmetry_equiv_pos_site_id
 _symmetry_equiv_pos_as_xyz
  1  'x, y, z'
loop_
 _atom_site_type_symbol
 _atom_site_label
 _atom_site_symmetry_multiplicity
 _atom_site_fract_x
 _atom_site_fract_y
 _atom_site_fract_z
 _atom_site_occupancy
  O  O1  1  0.692572  0.800467  0.269837  1
  O  O2  1  0.307339  0.699481  0.269838  1
  O  O3  1  0.692561  0.699471  0.269837  1
  O  O4  1  0.307337  0.800478  0.269837  1
  O  O5  1  0.887944  0.836003  0.278265  1
  O  O6  1  0.111947  0.835998  0.278265  1
  O  O7  1  0.717458  0.899576  0.269833  1
  O  O8  1  0.282406  0.899584  0.269835  1
  O  O9  1  0.826249  0.838588  0.247690  1
  O  O10  1  0.173652  0.838591  0.247690  1
  O  O11  1  0.792129  0.898827  0.190800  1
  O  O12  1  0.207780  0.898829  0.190800  1
  O  O13  1  0.811307  0.800792  0.185865  1
  O  O14  1  0.188594  0.699167  0.185869  1
  O  O15  1  0.811302  0.699166  0.185866  1
  O  O16  1  0.188596  0.800793  0.185865  1
  O  O17  1  0.615368  0.834374  0.194836  1
  O  O18  1  0.384539  0.834376  0.194835  1
  O  O19  1  0.793426  0.832032  0.215517  1
  O  O20  1  0.206476  0.667907  0.215518  1
  O  O21  1  0.793440  0.667910  0.215515  1
  O  O22  1  0.206482  0.832033  0.215516  1
  O  O23  1  0.845512  0.749971  0.232567  1
  O  O24  1  0.154398  0.749973  0.232568  1
  O  O25  1  0.000000  0.819080  0.228311  1
  O  O26  1  -0.000000  0.680863  0.228313  1
  O  O27  1  0.499933  0.928336  0.276703  1
  O  O28  1  0.657929  0.000000  0.276464  1
  O  O29  1  0.845567  0.929778  0.160856  1
  O  O30  1  0.000000  0.930209  0.183089  1
  O  O31  1  0.499953  0.749977  0.274526  1
  O  O32  1  0.656942  0.749969  0.296859  1
  O  O33  1  0.342964  0.749983  0.296859  1
  O  O34  1  0.000000  0.749978  0.180995  1
  O  O35  1  0.499960  0.819674  0.167600  1
  O  O36  1  0.499944  0.680266  0.167601  1
  O  O37  1  0.000000  0.749975  0.283101  1
  O  O38  1  0.499947  0.749973  0.189909  1
  O  O39  1  0.154343  0.929781  0.160856  1
  O  O40  1  0.341948  0.000000  0.276467  1
  O  O41  1  0.611942  0.336006  0.181628  1
  O  O42  1  0.111958  0.663952  0.278266  1
  O  O43  1  0.887953  0.663947  0.278263  1
  O  O44  1  0.387939  0.336003  0.181627  1
  O  O45  1  0.782420  0.399585  0.190058  1
  O  O46  1  0.282436  0.600373  0.269836  1
  O  O47  1  0.717482  0.600364  0.269834  1
  O  O48  1  0.217473  0.399587  0.190058  1
  O  O49  1  0.673665  0.338592  0.212202  1
  O  O50  1  0.173663  0.661359  0.247692  1
  O  O51  1  0.826235  0.661354  0.247689  1
  O  O52  1  0.326244  0.338594  0.212202  1
  O  O53  1  0.707769  0.398819  0.269095  1
  O  O54  1  0.207767  0.601129  0.190796  1
  O  O55  1  0.792120  0.601129  0.190794  1
  O  O56  1  0.292116  0.398827  0.269095  1
  O  O57  1  0.884534  0.334373  0.265058  1
  O  O58  1  0.384532  0.665573  0.194836  1
  O  O59  1  0.615367  0.665576  0.194836  1
  O  O60  1  0.115365  0.334372  0.265057  1
  O  O61  1  0.000000  0.428342  0.183190  1
  O  O62  1  0.499960  0.571610  0.276704  1
  O  O63  1  0.154332  0.570172  0.160850  1
  O  O64  1  0.841954  0.499500  0.183426  1
  O  O65  1  0.341962  0.500455  0.276465  1
  O  O66  1  0.657943  0.500449  0.276464  1
  O  O67  1  0.157934  0.499502  0.183427  1
  O  O68  1  0.499946  0.430202  0.276806  1
  O  O69  1  -0.000000  0.569751  0.183083  1
  O  O70  1  0.845557  0.570169  0.160849  1
  O  O71  1  0.654336  0.429773  0.299039  1
  O  O72  1  0.345561  0.429778  0.299040  1
  O  O73  1  0.807330  0.300478  0.190053  1
  O  O74  1  0.192563  0.199484  0.190057  1
  O  O75  1  0.807331  0.199481  0.190057  1
  O  O76  1  0.192554  0.300481  0.190056  1
  O  O77  1  0.387944  0.163955  0.181629  1
  O  O78  1  0.611949  0.163951  0.181630  1
  O  O79  1  0.217472  0.100376  0.190059  1
  O  O80  1  0.782428  0.100373  0.190059  1
  O  O81  1  0.326244  0.161363  0.212203  1
  O  O82  1  0.673659  0.161358  0.212204  1
  O  O83  1  0.292124  0.101127  0.269097  1
  O  O84  1  0.707767  0.101121  0.269095  1
  O  O85  1  0.688597  0.300783  0.274027  1
  O  O86  1  0.311297  0.199165  0.274027  1
  O  O87  1  0.688591  0.199157  0.274028  1
  O  O88  1  0.311309  0.300791  0.274025  1
  O  O89  1  0.115364  0.165574  0.265057  1
  O  O90  1  0.884531  0.165569  0.265059  1
  O  O91  1  0.706475  0.332033  0.244377  1
  O  O92  1  0.293431  0.167914  0.244377  1
  O  O93  1  0.706472  0.167915  0.244378  1
  O  O94  1  0.293429  0.332042  0.244376  1
  O  O95  1  0.654393  0.249976  0.227325  1
  O  O96  1  0.345506  0.249978  0.227326  1
  O  O97  1  0.499953  0.319086  0.231580  1
  O  O98  1  0.499950  0.180870  0.231582  1
  O  O99  1  0.000000  0.071616  0.183190  1
  O  O100  1  0.841962  0.000000  0.183430  1
  O  O101  1  0.345564  0.070170  0.299042  1
  O  O102  1  0.499945  0.069744  0.276808  1
  O  O103  1  -0.000000  0.249978  0.185366  1
  O  O104  1  0.842959  0.249966  0.163033  1
  O  O105  1  0.156938  0.249977  0.163034  1
  O  O106  1  0.499948  0.249973  0.278898  1
  O  O107  1  0.000000  0.319674  0.292292  1
  O  O108  1  0.000000  0.180267  0.292292  1
  O  O109  1  0.499951  0.249978  0.176793  1
  O  O110  1  0.000000  0.249972  0.269984  1
  O  O111  1  0.157945  0.000000  0.183430  1
  O  O112  1  0.654340  0.070163  0.299040  1
  O  O113  1  0.192566  0.800470  0.131578  1
  O  O114  1  0.807337  0.699471  0.131575  1
  O  O115  1  0.192577  0.699472  0.131575  1
  O  O116  1  0.807348  0.800467  0.131574  1
  O  O117  1  0.387957  0.835995  0.140003  1
  O  O118  1  0.611962  0.835990  0.140003  1
  O  O119  1  0.217480  0.899577  0.131576  1
  O  O120  1  0.782433  0.899575  0.131575  1
  O  O121  1  0.326233  0.838590  0.109430  1
  O  O122  1  0.673667  0.838591  0.109429  1
  O  O123  1  0.293422  0.832037  0.077256  1
  O  O124  1  0.706473  0.667910  0.077255  1
  O  O125  1  0.293418  0.667917  0.077253  1
  O  O126  1  0.706462  0.832036  0.077254  1
  O  O127  1  0.345504  0.749975  0.094306  1
  O  O128  1  0.654389  0.749975  0.094305  1
  O  O129  1  0.499945  0.819085  0.090052  1
  O  O130  1  0.499945  0.680868  0.090048  1
  O  O131  1  0.000000  0.928333  0.138444  1
  O  O132  1  0.157943  -0.000000  0.138205  1
  O  O133  1  0.841963  -0.000000  0.138205  1
  O  O134  1  -0.000000  0.749965  0.136264  1
  O  O135  1  0.156943  0.749966  0.158598  1
  O  O136  1  0.842966  0.749975  0.158596  1
  O  O137  1  0.499950  0.749967  0.144839  1
  O  O138  1  0.611957  0.663943  0.140004  1
  O  O139  1  0.387954  0.663939  0.140002  1
  O  O140  1  0.782421  0.600363  0.131569  1
  O  O141  1  0.217473  0.600364  0.131570  1
  O  O142  1  0.173654  0.338590  0.073941  1
  O  O143  1  0.673642  0.661360  0.109429  1
  O  O144  1  0.326247  0.661355  0.109427  1
  O  O145  1  0.826244  0.338583  0.073940  1
  O  O146  1  0.207781  0.398820  0.130834  1
  O  O147  1  0.792129  0.398815  0.130833  1
  O  O148  1  0.384536  0.334368  0.126795  1
  O  O149  1  0.615368  0.334368  0.126796  1
  O  O150  1  0.000000  0.571606  0.138438  1
  O  O151  1  0.841957  0.500446  0.138200  1
  O  O152  1  0.157940  0.500449  0.138202  1
  O  O153  1  0.000000  0.430199  0.138545  1
  O  O154  1  0.845562  0.429778  0.160777  1
  O  O155  1  0.154335  0.429780  0.160778  1
  O  O156  1  0.826257  0.161352  0.073940  1
  O  O157  1  0.173668  0.161356  0.073942  1
  O  O158  1  0.792126  0.101116  0.130833  1
  O  O159  1  0.207773  0.101121  0.130833  1
  O  O160  1  0.188595  0.300784  0.135764  1
  O  O161  1  0.811314  0.199152  0.135763  1
  O  O162  1  0.188607  0.199158  0.135766  1
  O  O163  1  0.811308  0.300778  0.135764  1
  O  O164  1  0.615370  0.165569  0.126796  1
  O  O165  1  0.384541  0.165567  0.126797  1
  O  O166  1  0.206471  0.332035  0.106115  1
  O  O167  1  0.793429  0.167903  0.106114  1
  O  O168  1  0.206484  0.167914  0.106116  1
  O  O169  1  0.793424  0.332028  0.106114  1
  O  O170  1  0.154396  0.249973  0.089064  1
  O  O171  1  0.845511  0.249966  0.089063  1
  O  O172  1  0.000000  0.319078  0.093319  1
  O  O173  1  0.000000  0.180861  0.093320  1
  O  O174  1  0.000000  0.069741  0.138546  1
  O  O175  1  0.000000  0.249967  0.140636  1
  O  O176  1  0.499948  0.319677  0.154030  1
  O  O177  1  0.499962  0.180269  0.154032  1
  O  O178  1  0.499952  0.249969  0.131723  1
  O  O179  1  0.154340  0.070172  0.160779  1
  O  O180  1  0.845560  0.070169  0.160778  1
  O  O181  1  0.692572  0.800467  0.546361  1
  O  O182  1  0.307339  0.699481  0.546362  1
  O  O183  1  0.692561  0.699471  0.546361  1
  O  O184  1  0.307337  0.800478  0.546361  1
  O  O185  1  0.887944  0.836003  0.554789  1
  O  O186  1  0.111947  0.835998  0.554789  1
  O  O187  1  0.717458  0.899576  0.546357  1
  O  O188  1  0.282406  0.899584  0.546359  1
  O  O189  1  0.826249  0.838588  0.524214  1
  O  O190  1  0.173652  0.838591  0.524214  1
  O  O191  1  0.792129  0.898827  0.467324  1
  O  O192  1  0.207780  0.898829  0.467324  1
  O  O193  1  0.811307  0.800792  0.462389  1
  O  O194  1  0.188594  0.699167  0.462393  1
  O  O195  1  0.811302  0.699166  0.462389  1
  O  O196  1  0.188596  0.800793  0.462389  1
  O  O197  1  0.615368  0.834374  0.471359  1
  O  O198  1  0.384539  0.834376  0.471358  1
  O  O199  1  0.793426  0.832032  0.492040  1
  O  O200  1  0.206476  0.667907  0.492041  1
  O  O201  1  0.793440  0.667910  0.492038  1
  O  O202  1  0.206482  0.832033  0.492040  1
  O  O203  1  0.845512  0.749971  0.509091  1
  O  O204  1  0.154398  0.749973  0.509091  1
  O  O205  1  -0.000000  0.819080  0.504834  1
  O  O206  1  0.000000  0.680863  0.504836  1
  O  O207  1  0.499933  0.928336  0.553226  1
  O  O208  1  0.657929  0.000000  0.552988  1
  O  O209  1  0.845567  0.929778  0.437380  1
  O  O210  1  -0.000000  0.930209  0.459613  1
  O  O211  1  0.499953  0.749977  0.551050  1
  O  O212  1  0.656942  0.749969  0.573383  1
  O  O213  1  0.342964  0.749983  0.573383  1
  O  O214  1  -0.000000  0.749978  0.457518  1
  O  O215  1  0.499960  0.819674  0.444124  1
  O  O216  1  0.499944  0.680266  0.444125  1
  O  O217  1  0.000000  0.749975  0.559624  1
  O  O218  1  0.499947  0.749973  0.466432  1
  O  O219  1  0.154343  0.929781  0.437380  1
  O  O220  1  0.341948  0.000000  0.552990  1
  O  O221  1  0.611942  0.336006  0.458152  1
  O  O222  1  0.111958  0.663952  0.554790  1
  O  O223  1  0.887953  0.663947  0.554786  1
  O  O224  1  0.387939  0.336003  0.458151  1
  O  O225  1  0.782420  0.399585  0.466581  1
  O  O226  1  0.282436  0.600373  0.546360  1
  O  O227  1  0.717482  0.600364  0.546358  1
  O  O228  1  0.217473  0.399587  0.466582  1
  O  O229  1  0.673665  0.338592  0.488726  1
  O  O230  1  0.173663  0.661359  0.524216  1
  O  O231  1  0.826235  0.661354  0.524213  1
  O  O232  1  0.326244  0.338594  0.488726  1
  O  O233  1  0.707769  0.398819  0.545618  1
  O  O234  1  0.207767  0.601129  0.467319  1
  O  O235  1  0.792120  0.601129  0.467318  1
  O  O236  1  0.292116  0.398827  0.545619  1
  O  O237  1  0.884534  0.334373  0.541581  1
  O  O238  1  0.384532  0.665573  0.471360  1
  O  O239  1  0.615367  0.665576  0.471360  1
  O  O240  1  0.115365  0.334372  0.541580  1
  O  O241  1  0.000000  0.428342  0.459713  1
  O  O242  1  0.499960  0.571610  0.553227  1
  O  O243  1  0.154332  0.570172  0.437374  1
  O  O244  1  0.841954  0.499500  0.459949  1
  O  O245  1  0.341962  0.500455  0.552989  1
  O  O246  1  0.657943  0.500449  0.552988  1
  O  O247  1  0.157934  0.499502  0.459950  1
  O  O248  1  0.499946  0.430202  0.553330  1
  O  O249  1  0.000000  0.569751  0.459606  1
  O  O250  1  0.845557  0.570169  0.437373  1
  O  O251  1  0.654336  0.429773  0.575563  1
  O  O252  1  0.345561  0.429778  0.575563  1
  O  O253  1  0.807330  0.300478  0.466576  1
  O  O254  1  0.192563  0.199484  0.466581  1
  O  O255  1  0.807331  0.199481  0.466581  1
  O  O256  1  0.192554  0.300481  0.466579  1
  O  O257  1  0.387944  0.163955  0.458152  1
  O  O258  1  0.611949  0.163951  0.458154  1
  O  O259  1  0.217472  0.100376  0.466582  1
  O  O260  1  0.782428  0.100373  0.466582  1
  O  O261  1  0.326244  0.161363  0.488727  1
  O  O262  1  0.673659  0.161358  0.488727  1
  O  O263  1  0.292124  0.101127  0.545621  1
  O  O264  1  0.707767  0.101121  0.545619  1
  O  O265  1  0.688597  0.300783  0.550550  1
  O  O266  1  0.311297  0.199165  0.550551  1
  O  O267  1  0.688591  0.199157  0.550552  1
  O  O268  1  0.311309  0.300791  0.550549  1
  O  O269  1  0.115364  0.165574  0.541580  1
  O  O270  1  0.884531  0.165569  0.541582  1
  O  O271  1  0.706475  0.332033  0.520900  1
  O  O272  1  0.293431  0.167914  0.520901  1
  O  O273  1  0.706472  0.167915  0.520902  1
  O  O274  1  0.293429  0.332042  0.520900  1
  O  O275  1  0.654393  0.249976  0.503849  1
  O  O276  1  0.345506  0.249978  0.503850  1
  O  O277  1  0.499953  0.319086  0.508104  1
  O  O278  1  0.499950  0.180870  0.508106  1
  O  O279  1  0.000000  0.071616  0.459714  1
  O  O280  1  0.841962  0.000000  0.459954  1
  O  O281  1  0.345564  0.070170  0.575566  1
  O  O282  1  0.499945  0.069744  0.553332  1
  O  O283  1  0.000000  0.249978  0.461890  1
  O  O284  1  0.842959  0.249966  0.439557  1
  O  O285  1  0.156938  0.249977  0.439558  1
  O  O286  1  0.499948  0.249973  0.555422  1
  O  O287  1  0.000000  0.319674  0.568816  1
  O  O288  1  0.000000  0.180267  0.568816  1
  O  O289  1  0.499951  0.249978  0.453316  1
  O  O290  1  0.000000  0.249972  0.546508  1
  O  O291  1  0.157945  0.000000  0.459954  1
  O  O292  1  0.654340  0.070163  0.575564  1
  O  O293  1  0.192566  0.800470  0.408101  1
  O  O294  1  0.807337  0.699471  0.408099  1
  O  O295  1  0.192577  0.699472  0.408099  1
  O  O296  1  0.807348  0.800467  0.408098  1
  O  O297  1  0.387957  0.835995  0.416527  1
  O  O298  1  0.611962  0.835990  0.416526  1
  O  O299  1  0.217480  0.899577  0.408100  1
  O  O300  1  0.782433  0.899575  0.408099  1
  O  O301  1  0.326233  0.838590  0.385954  1
  O  O302  1  0.673667  0.838591  0.385952  1
  O  O303  1  0.292123  0.898821  0.329060  1
  O  O304  1  0.707777  0.898815  0.329057  1
  O  O305  1  0.311312  0.800785  0.324131  1
  O  O306  1  0.688595  0.699152  0.324128  1
  O  O307  1  0.311299  0.699159  0.324126  1
  O  O308  1  0.688597  0.800778  0.324129  1
  O  O309  1  0.115366  0.834371  0.333098  1
  O  O310  1  0.884533  0.834366  0.333099  1
  O  O311  1  0.293422  0.832037  0.353780  1
  O  O312  1  0.706473  0.667910  0.353778  1
  O  O313  1  0.293418  0.667917  0.353777  1
  O  O314  1  0.706462  0.832036  0.353778  1
  O  O315  1  0.345504  0.749975  0.370830  1
  O  O316  1  0.654389  0.749975  0.370829  1
  O  O317  1  0.499945  0.819085  0.366576  1
  O  O318  1  0.499945  0.680868  0.366572  1
  O  O319  1  0.000000  0.928333  0.414968  1
  O  O320  1  0.157943  0.000000  0.414728  1
  O  O321  1  0.841963  0.000000  0.414728  1
  O  O322  1  0.499949  0.930197  0.321348  1
  O  O323  1  0.000000  0.749965  0.412788  1
  O  O324  1  0.156943  0.749966  0.435122  1
  O  O325  1  0.842966  0.749975  0.435120  1
  O  O326  1  0.499952  0.749967  0.319257  1
  O  O327  1  0.000000  0.819676  0.305863  1
  O  O328  1  0.000000  0.680268  0.305862  1
  O  O329  1  0.499950  0.749967  0.421362  1
  O  O330  1  0.000000  0.749969  0.328171  1
  O  O331  1  0.654328  0.929772  0.299114  1
  O  O332  1  0.345553  0.929778  0.299116  1
  O  O333  1  0.111950  0.335998  0.319890  1
  O  O334  1  0.611957  0.663943  0.416528  1
  O  O335  1  0.387954  0.663939  0.416526  1
  O  O336  1  0.887945  0.335990  0.319889  1
  O  O337  1  0.282426  0.399579  0.328320  1
  O  O338  1  0.782421  0.600363  0.408093  1
  O  O339  1  0.217473  0.600364  0.408094  1
  O  O340  1  0.717475  0.399572  0.328319  1
  O  O341  1  0.173654  0.338590  0.350465  1
  O  O342  1  0.673642  0.661360  0.385952  1
  O  O343  1  0.326247  0.661355  0.385951  1
  O  O344  1  0.826244  0.338583  0.350464  1
  O  O345  1  0.207781  0.398820  0.407358  1
  O  O346  1  0.707787  0.601117  0.329060  1
  O  O347  1  0.292143  0.601122  0.329060  1
  O  O348  1  0.792129  0.398815  0.407356  1
  O  O349  1  0.384536  0.334368  0.403318  1
  O  O350  1  0.884536  0.665571  0.333098  1
  O  O351  1  0.115366  0.665565  0.333095  1
  O  O352  1  0.615368  0.334368  0.403319  1
  O  O353  1  0.499953  0.428332  0.321451  1
  O  O354  1  -0.000000  0.571606  0.414961  1
  O  O355  1  0.341968  0.499493  0.321690  1
  O  O356  1  0.841957  0.500446  0.414724  1
  O  O357  1  0.157940  0.500449  0.414725  1
  O  O358  1  0.657950  0.499488  0.321690  1
  O  O359  1  0.000000  0.430199  0.415068  1
  O  O360  1  0.499966  0.569739  0.321348  1
  O  O361  1  0.654353  0.570164  0.299115  1
  O  O362  1  0.345575  0.570169  0.299116  1
  O  O363  1  0.845562  0.429778  0.437301  1
  O  O364  1  0.154335  0.429780  0.437302  1
  O  O365  1  0.307333  0.300471  0.328318  1
  O  O366  1  0.692559  0.199467  0.328318  1
  O  O367  1  0.307329  0.199475  0.328317  1
  O  O368  1  0.692562  0.300464  0.328318  1
  O  O369  1  0.887945  0.163947  0.319888  1
  O  O370  1  0.111950  0.163940  0.319891  1
  O  O371  1  0.717488  0.100360  0.328320  1
  O  O372  1  0.282437  0.100366  0.328322  1
  O  O373  1  0.826257  0.161352  0.350463  1
  O  O374  1  0.173668  0.161356  0.350465  1
  O  O375  1  0.792126  0.101116  0.407356  1
  O  O376  1  0.207773  0.101121  0.407357  1
  O  O377  1  0.188595  0.300784  0.412288  1
  O  O378  1  0.811314  0.199152  0.412287  1
  O  O379  1  0.188607  0.199158  0.412290  1
  O  O380  1  0.811308  0.300778  0.412287  1
  O  O381  1  0.615370  0.165569  0.403319  1
  O  O382  1  0.384541  0.165567  0.403321  1
  O  O383  1  0.206471  0.332035  0.382639  1
  O  O384  1  0.793429  0.167903  0.382637  1
  O  O385  1  0.206484  0.167914  0.382639  1
  O  O386  1  0.793424  0.332028  0.382638  1
  O  O387  1  0.154396  0.249973  0.365588  1
  O  O388  1  0.845511  0.249966  0.365587  1
  O  O389  1  0.000000  0.319078  0.369843  1
  O  O390  1  0.000000  0.180861  0.369844  1
  O  O391  1  0.499960  0.071606  0.321453  1
  O  O392  1  0.657945  0.000000  0.321689  1
  O  O393  1  0.341964  0.000000  0.321692  1
  O  O394  1  0.000000  0.069741  0.415070  1
  O  O395  1  0.499944  0.249969  0.323629  1
  O  O396  1  0.342957  0.249979  0.301296  1
  O  O397  1  0.656934  0.249970  0.301296  1
  O  O398  1  0.000000  0.249967  0.417160  1
  O  O399  1  0.499948  0.319677  0.430554  1
  O  O400  1  0.499962  0.180269  0.430555  1
  O  O401  1  0.000000  0.249969  0.315054  1
  O  O402  1  0.499952  0.249969  0.408246  1
  O  O403  1  0.154340  0.070172  0.437302  1
  O  O404  1  0.845560  0.070169  0.437302  1
  O  O405  1  0.826249  0.838588  0.800738  1
  O  O406  1  0.173652  0.838591  0.800738  1
  O  O407  1  0.792129  0.898827  0.743848  1
  O  O408  1  0.207780  0.898829  0.743848  1
  O  O409  1  0.811307  0.800792  0.738913  1
  O  O410  1  0.188594  0.699167  0.738917  1
  O  O411  1  0.811302  0.699166  0.738913  1
  O  O412  1  0.188596  0.800793  0.738913  1
  O  O413  1  0.615368  0.834374  0.747883  1
  O  O414  1  0.384539  0.834376  0.747882  1
  O  O415  1  0.793426  0.832032  0.768564  1
  O  O416  1  0.206476  0.667907  0.768565  1
  O  O417  1  0.793440  0.667910  0.768562  1
  O  O418  1  0.206482  0.832033  0.768564  1
  O  O419  1  0.845512  0.749971  0.785614  1
  O  O420  1  0.154398  0.749973  0.785615  1
  O  O421  1  0.000000  0.819080  0.781358  1
  O  O422  1  0.000000  0.680863  0.781360  1
  O  O423  1  0.845567  0.929778  0.713903  1
  O  O424  1  0.000000  0.930209  0.736136  1
  O  O425  1  0.000000  0.749978  0.734042  1
  O  O426  1  0.499960  0.819674  0.720648  1
  O  O427  1  0.499944  0.680266  0.720648  1
  O  O428  1  0.499947  0.749973  0.742956  1
  O  O429  1  0.154343  0.929781  0.713903  1
  O  O430  1  0.611942  0.336006  0.734675  1
  O  O431  1  0.387939  0.336003  0.734674  1
  O  O432  1  0.782420  0.399585  0.743105  1
  O  O433  1  0.217473  0.399587  0.743106  1
  O  O434  1  0.673665  0.338592  0.765249  1
  O  O435  1  0.173663  0.661359  0.800739  1
  O  O436  1  0.826235  0.661354  0.800736  1
  O  O437  1  0.326244  0.338594  0.765249  1
  O  O438  1  0.207767  0.601129  0.743843  1
  O  O439  1  0.792120  0.601129  0.743841  1
  O  O440  1  0.384532  0.665573  0.747883  1
  O  O441  1  0.615367  0.665576  0.747883  1
  O  O442  1  0.000000  0.428342  0.736237  1
  O  O443  1  0.154332  0.570172  0.713898  1
  O  O444  1  0.841954  0.499500  0.736473  1
  O  O445  1  0.157934  0.499502  0.736474  1
  O  O446  1  0.000000  0.569751  0.736130  1
  O  O447  1  0.845557  0.570169  0.713897  1
  O  O448  1  0.807330  0.300478  0.743100  1
  O  O449  1  0.192563  0.199484  0.743104  1
  O  O450  1  0.807331  0.199481  0.743105  1
  O  O451  1  0.192554  0.300481  0.743103  1
  O  O452  1  0.387944  0.163955  0.734676  1
  O  O453  1  0.611949  0.163951  0.734677  1
  O  O454  1  0.217472  0.100376  0.743106  1
  O  O455  1  0.782428  0.100373  0.743106  1
  O  O456  1  0.326244  0.161363  0.765250  1
  O  O457  1  0.673659  0.161358  0.765251  1
  O  O458  1  0.706475  0.332033  0.797424  1
  O  O459  1  0.293431  0.167914  0.797425  1
  O  O460  1  0.706472  0.167915  0.797425  1
  O  O461  1  0.293429  0.332042  0.797423  1
  O  O462  1  0.654393  0.249976  0.780373  1
  O  O463  1  0.345506  0.249978  0.780374  1
  O  O464  1  0.499953  0.319086  0.784627  1
  O  O465  1  0.499950  0.180870  0.784629  1
  O  O466  1  -0.000000  0.071616  0.736237  1
  O  O467  1  0.841962  0.000000  0.736477  1
  O  O468  1  0.000000  0.249978  0.738414  1
  O  O469  1  0.842959  0.249966  0.716080  1
  O  O470  1  0.156938  0.249977  0.716082  1
  O  O471  1  0.499951  0.249978  0.729840  1
  O  O472  1  0.157945  0.000000  0.736477  1
  O  O473  1  0.192566  0.800470  0.684625  1
  O  O474  1  0.807337  0.699471  0.684622  1
  O  O475  1  0.192577  0.699472  0.684622  1
  O  O476  1  0.807348  0.800467  0.684621  1
  O  O477  1  0.387957  0.835995  0.693051  1
  O  O478  1  0.611962  0.835990  0.693050  1
  O  O479  1  0.217480  0.899577  0.684624  1
  O  O480  1  0.782433  0.899575  0.684623  1
  O  O481  1  0.326233  0.838590  0.662477  1
  O  O482  1  0.673667  0.838591  0.662476  1
  O  O483  1  0.292123  0.898821  0.605584  1
  O  O484  1  0.707777  0.898815  0.605581  1
  O  O485  1  0.311312  0.800785  0.600654  1
  O  O486  1  0.688595  0.699152  0.600652  1
  O  O487  1  0.311299  0.699159  0.600650  1
  O  O488  1  0.688597  0.800778  0.600652  1
  O  O489  1  0.115366  0.834371  0.609621  1
  O  O490  1  0.884533  0.834366  0.609622  1
  O  O491  1  0.293422  0.832037  0.630303  1
  O  O492  1  0.706473  0.667910  0.630302  1
  O  O493  1  0.293418  0.667917  0.630301  1
  O  O494  1  0.706462  0.832036  0.630301  1
  O  O495  1  0.345504  0.749975  0.647354  1
  O  O496  1  0.654389  0.749975  0.647352  1
  O  O497  1  0.499945  0.819085  0.643099  1
  O  O498  1  0.499945  0.680868  0.643095  1
  O  O499  1  0.000000  0.928333  0.691492  1
  O  O500  1  0.157943  0.000000  0.691252  1
  O  O501  1  0.841963  0.000000  0.691252  1
  O  O502  1  0.499949  0.930197  0.597871  1
  O  O503  1  0.000000  0.749965  0.689312  1
  O  O504  1  0.156943  0.749966  0.711645  1
  O  O505  1  0.842966  0.749975  0.711644  1
  O  O506  1  0.499952  0.749967  0.595780  1
  O  O507  1  0.000000  0.819676  0.582387  1
  O  O508  1  0.000000  0.680268  0.582385  1
  O  O509  1  0.499950  0.749967  0.697886  1
  O  O510  1  -0.000000  0.749969  0.604694  1
  O  O511  1  0.654328  0.929772  0.575637  1
  O  O512  1  0.345553  0.929778  0.575639  1
  O  O513  1  0.111950  0.335998  0.596414  1
  O  O514  1  0.611957  0.663943  0.693051  1
  O  O515  1  0.387954  0.663939  0.693050  1
  O  O516  1  0.887945  0.335990  0.596413  1
  O  O517  1  0.282426  0.399579  0.604844  1
  O  O518  1  0.782421  0.600363  0.684617  1
  O  O519  1  0.217473  0.600364  0.684617  1
  O  O520  1  0.717475  0.399572  0.604843  1
  O  O521  1  0.173654  0.338590  0.626988  1
  O  O522  1  0.673642  0.661360  0.662476  1
  O  O523  1  0.326247  0.661355  0.662475  1
  O  O524  1  0.826244  0.338583  0.626988  1
  O  O525  1  0.207781  0.398820  0.683881  1
  O  O526  1  0.707787  0.601117  0.605584  1
  O  O527  1  0.292143  0.601122  0.605584  1
  O  O528  1  0.792129  0.398815  0.683880  1
  O  O529  1  0.384536  0.334368  0.679842  1
  O  O530  1  0.884536  0.665571  0.609622  1
  O  O531  1  0.115366  0.665565  0.609619  1
  O  O532  1  0.615368  0.334368  0.679843  1
  O  O533  1  0.499953  0.428332  0.597975  1
  O  O534  1  -0.000000  0.571606  0.691485  1
  O  O535  1  0.341968  0.499493  0.598214  1
  O  O536  1  0.841957  0.500446  0.691248  1
  O  O537  1  0.157940  0.500449  0.691249  1
  O  O538  1  0.657950  0.499488  0.598213  1
  O  O539  1  0.000000  0.430199  0.691592  1
  O  O540  1  0.499966  0.569739  0.597872  1
  O  O541  1  0.654353  0.570164  0.575639  1
  O  O542  1  0.345575  0.570169  0.575639  1
  O  O543  1  0.845562  0.429778  0.713824  1
  O  O544  1  0.154335  0.429780  0.713825  1
  O  O545  1  0.307333  0.300471  0.604842  1
  O  O546  1  0.692559  0.199467  0.604842  1
  O  O547  1  0.307329  0.199475  0.604840  1
  O  O548  1  0.692562  0.300464  0.604842  1
  O  O549  1  0.887945  0.163947  0.596412  1
  O  O550  1  0.111950  0.163940  0.596415  1
  O  O551  1  0.717488  0.100360  0.604843  1
  O  O552  1  0.282437  0.100366  0.604846  1
  O  O553  1  0.826257  0.161352  0.626987  1
  O  O554  1  0.173668  0.161356  0.626989  1
  O  O555  1  0.792126  0.101116  0.683880  1
  O  O556  1  0.207773  0.101121  0.683881  1
  O  O557  1  0.188595  0.300784  0.688811  1
  O  O558  1  0.811314  0.199152  0.688811  1
  O  O559  1  0.188607  0.199158  0.688814  1
  O  O560  1  0.811308  0.300778  0.688811  1
  O  O561  1  0.615370  0.165569  0.679843  1
  O  O562  1  0.384541  0.165567  0.679845  1
  O  O563  1  0.206471  0.332035  0.659162  1
  O  O564  1  0.793429  0.167903  0.659161  1
  O  O565  1  0.206484  0.167914  0.659163  1
  O  O566  1  0.793424  0.332028  0.659162  1
  O  O567  1  0.154396  0.249973  0.642112  1
  O  O568  1  0.845511  0.249966  0.642111  1
  O  O569  1  -0.000000  0.319078  0.646367  1
  O  O570  1  0.000000  0.180861  0.646367  1
  O  O571  1  0.499960  0.071606  0.597977  1
  O  O572  1  0.657945  0.000000  0.598213  1
  O  O573  1  0.341964  0.000000  0.598215  1
  O  O574  1  -0.000000  0.069741  0.691593  1
  O  O575  1  0.499944  0.249969  0.600153  1
  O  O576  1  0.342957  0.249979  0.577819  1
  O  O577  1  0.656934  0.249970  0.577820  1
  O  O578  1  0.000000  0.249967  0.693683  1
  O  O579  1  0.499948  0.319677  0.707077  1
  O  O580  1  0.499962  0.180269  0.707079  1
  O  O581  1  0.000000  0.249969  0.591578  1
  O  O582  1  0.499952  0.249969  0.684770  1
  O  O583  1  0.154340  0.070172  0.713826  1
  O  O584  1  0.845560  0.070169  0.713826  1
  Si  Si585  1  0.499947  0.688803  0.187028  1
  Si  Si586  1  0.499953  0.811144  0.187027  1
  Si  Si587  1  0.782160  0.845800  0.266126  1
  Si  Si588  1  0.217729  0.845804  0.266126  1
  Si  Si589  1  0.750753  0.843023  0.197210  1
  Si  Si590  1  0.249153  0.843024  0.197209  1
  Si  Si591  1  0.864505  0.811169  0.230941  1
  Si  Si592  1  0.135403  0.688775  0.230942  1
  Si  Si593  1  0.864506  0.688774  0.230940  1
  Si  Si594  1  0.135402  0.811170  0.230941  1
  Si  Si595  1  0.635223  0.938661  0.279760  1
  Si  Si596  1  0.364648  0.938667  0.279762  1
  Si  Si597  1  0.864798  0.939639  0.180154  1
  Si  Si598  1  0.135111  0.939641  0.180154  1
  Si  Si599  1  0.635315  0.749971  0.277489  1
  Si  Si600  1  0.364592  0.749980  0.277489  1
  Si  Si601  1  0.864646  0.749978  0.177942  1
  Si  Si602  1  0.135258  0.749977  0.177943  1
  Si  Si603  1  0.000000  0.811241  0.286452  1
  Si  Si604  1  0.000000  0.688708  0.286451  1
  Si  Si605  1  0.364790  0.439637  0.279741  1
  Si  Si606  1  0.864787  0.560317  0.180148  1
  Si  Si607  1  0.135100  0.560319  0.180149  1
  Si  Si608  1  0.635103  0.439631  0.279741  1
  Si  Si609  1  0.717735  0.345806  0.193766  1
  Si  Si610  1  0.217745  0.654150  0.266128  1
  Si  Si611  1  0.782162  0.654143  0.266125  1
  Si  Si612  1  0.282158  0.345808  0.193767  1
  Si  Si613  1  0.749147  0.343018  0.262684  1
  Si  Si614  1  0.249145  0.656927  0.197210  1
  Si  Si615  1  0.750755  0.656929  0.197208  1
  Si  Si616  1  0.250750  0.343024  0.262683  1
  Si  Si617  1  0.864659  0.438669  0.180131  1
  Si  Si618  1  0.364672  0.561285  0.279762  1
  Si  Si619  1  0.635246  0.561280  0.279761  1
  Si  Si620  1  0.135233  0.438670  0.180131  1
  Si  Si621  1  0.000000  0.188801  0.272865  1
  Si  Si622  1  0.000000  0.311142  0.272865  1
  Si  Si623  1  0.282159  0.154154  0.193767  1
  Si  Si624  1  0.717738  0.154150  0.193768  1
  Si  Si625  1  0.250753  0.156928  0.262684  1
  Si  Si626  1  0.749144  0.156924  0.262685  1
  Si  Si627  1  0.635401  0.311173  0.228951  1
  Si  Si628  1  0.364502  0.188781  0.228953  1
  Si  Si629  1  0.635398  0.188779  0.228953  1
  Si  Si630  1  0.364503  0.311176  0.228952  1
  Si  Si631  1  0.135239  0.061289  0.180133  1
  Si  Si632  1  0.864664  0.061287  0.180133  1
  Si  Si633  1  0.364788  0.060315  0.279743  1
  Si  Si634  1  0.635102  0.060309  0.279741  1
  Si  Si635  1  0.864583  0.249976  0.182403  1
  Si  Si636  1  0.135306  0.249980  0.182404  1
  Si  Si637  1  0.635253  0.249971  0.281951  1
  Si  Si638  1  0.364641  0.249978  0.281950  1
  Si  Si639  1  0.499944  0.311244  0.173442  1
  Si  Si640  1  0.499952  0.188711  0.173443  1
  Si  Si641  1  0.282163  0.845799  0.127867  1
  Si  Si642  1  0.717748  0.845797  0.127865  1
  Si  Si643  1  0.364497  0.811172  0.092680  1
  Si  Si644  1  0.635393  0.688778  0.092678  1
  Si  Si645  1  0.364497  0.688778  0.092678  1
  Si  Si646  1  0.635394  0.811173  0.092679  1
  Si  Si647  1  0.135242  0.938663  0.141502  1
  Si  Si648  1  0.864668  0.938660  0.141502  1
  Si  Si649  1  0.135318  0.749968  0.139228  1
  Si  Si650  1  0.864596  0.749969  0.139227  1
  Si  Si651  1  0.499958  0.811234  0.148189  1
  Si  Si652  1  0.499950  0.688700  0.148190  1
  Si  Si653  1  0.864794  0.439630  0.141478  1
  Si  Si654  1  0.717734  0.654144  0.127864  1
  Si  Si655  1  0.282168  0.654142  0.127863  1
  Si  Si656  1  0.249149  0.343018  0.124422  1
  Si  Si657  1  0.750755  0.343014  0.124422  1
  Si  Si658  1  0.864659  0.561278  0.141496  1
  Si  Si659  1  0.135233  0.561281  0.141497  1
  Si  Si660  1  0.135108  0.439632  0.141479  1
  Si  Si661  1  0.499958  0.188799  0.134604  1
  Si  Si662  1  0.499951  0.311140  0.134603  1
  Si  Si663  1  0.750755  0.156919  0.124421  1
  Si  Si664  1  0.249154  0.156923  0.124423  1
  Si  Si665  1  0.135397  0.311170  0.090690  1
  Si  Si666  1  0.864510  0.188769  0.090690  1
  Si  Si667  1  0.135406  0.188775  0.090691  1
  Si  Si668  1  0.864501  0.311164  0.090690  1
  Si  Si669  1  0.864794  0.060308  0.141480  1
  Si  Si670  1  0.135107  0.060311  0.141480  1
  Si  Si671  1  0.135260  0.249971  0.143689  1
  Si  Si672  1  0.864648  0.249965  0.143688  1
  Si  Si673  1  0.499947  0.688803  0.463552  1
  Si  Si674  1  0.499953  0.811144  0.463551  1
  Si  Si675  1  0.782160  0.845800  0.542650  1
  Si  Si676  1  0.217729  0.845804  0.542650  1
  Si  Si677  1  0.750753  0.843023  0.473733  1
  Si  Si678  1  0.249153  0.843024  0.473733  1
  Si  Si679  1  0.864505  0.811169  0.507464  1
  Si  Si680  1  0.135403  0.688775  0.507466  1
  Si  Si681  1  0.864506  0.688774  0.507463  1
  Si  Si682  1  0.135402  0.811170  0.507464  1
  Si  Si683  1  0.635223  0.938661  0.556284  1
  Si  Si684  1  0.364648  0.938667  0.556285  1
  Si  Si685  1  0.864798  0.939639  0.456678  1
  Si  Si686  1  0.135111  0.939641  0.456678  1
  Si  Si687  1  0.635315  0.749971  0.554013  1
  Si  Si688  1  0.364592  0.749980  0.554013  1
  Si  Si689  1  0.864646  0.749978  0.454466  1
  Si  Si690  1  0.135258  0.749977  0.454467  1
  Si  Si691  1  0.000000  0.811241  0.562975  1
  Si  Si692  1  0.000000  0.688708  0.562974  1
  Si  Si693  1  0.364790  0.439637  0.556265  1
  Si  Si694  1  0.864787  0.560317  0.456672  1
  Si  Si695  1  0.135100  0.560319  0.456673  1
  Si  Si696  1  0.635103  0.439631  0.556264  1
  Si  Si697  1  0.717735  0.345806  0.470289  1
  Si  Si698  1  0.217745  0.654150  0.542651  1
  Si  Si699  1  0.782162  0.654143  0.542649  1
  Si  Si700  1  0.282158  0.345808  0.470290  1
  Si  Si701  1  0.749147  0.343018  0.539207  1
  Si  Si702  1  0.249145  0.656927  0.473734  1
  Si  Si703  1  0.750755  0.656929  0.473731  1
  Si  Si704  1  0.250750  0.343024  0.539207  1
  Si  Si705  1  0.864659  0.438669  0.456654  1
  Si  Si706  1  0.364672  0.561285  0.556285  1
  Si  Si707  1  0.635246  0.561280  0.556285  1
  Si  Si708  1  0.135233  0.438670  0.456655  1
  Si  Si709  1  0.000000  0.188801  0.549389  1
  Si  Si710  1  0.000000  0.311142  0.549389  1
  Si  Si711  1  0.282159  0.154154  0.470291  1
  Si  Si712  1  0.717738  0.154150  0.470292  1
  Si  Si713  1  0.250753  0.156928  0.539208  1
  Si  Si714  1  0.749144  0.156924  0.539208  1
  Si  Si715  1  0.635401  0.311173  0.505475  1
  Si  Si716  1  0.364502  0.188781  0.505477  1
  Si  Si717  1  0.635398  0.188779  0.505477  1
  Si  Si718  1  0.364503  0.311176  0.505475  1
  Si  Si719  1  0.135239  0.061289  0.456656  1
  Si  Si720  1  0.864664  0.061287  0.456656  1
  Si  Si721  1  0.364788  0.060315  0.556267  1
  Si  Si722  1  0.635102  0.060309  0.556265  1
  Si  Si723  1  0.864583  0.249976  0.458926  1
  Si  Si724  1  0.135306  0.249980  0.458928  1
  Si  Si725  1  0.635253  0.249971  0.558474  1
  Si  Si726  1  0.364641  0.249978  0.558474  1
  Si  Si727  1  0.499944  0.311244  0.449965  1
  Si  Si728  1  0.499952  0.188711  0.449966  1
  Si  Si729  1  0.000000  0.688799  0.325289  1
  Si  Si730  1  0.000000  0.811140  0.325290  1
  Si  Si731  1  0.282163  0.845799  0.404390  1
  Si  Si732  1  0.717748  0.845797  0.404388  1
  Si  Si733  1  0.250751  0.843019  0.335472  1
  Si  Si734  1  0.749146  0.843015  0.335471  1
  Si  Si735  1  0.364497  0.811172  0.369204  1
  Si  Si736  1  0.635393  0.688778  0.369202  1
  Si  Si737  1  0.364497  0.688778  0.369201  1
  Si  Si738  1  0.635394  0.811173  0.369203  1
  Si  Si739  1  0.135242  0.938663  0.418026  1
  Si  Si740  1  0.864668  0.938660  0.418026  1
  Si  Si741  1  0.364792  0.939632  0.318414  1
  Si  Si742  1  0.635105  0.939628  0.318412  1
  Si  Si743  1  0.135318  0.749968  0.415752  1
  Si  Si744  1  0.864596  0.749969  0.415750  1
  Si  Si745  1  0.364645  0.749974  0.316205  1
  Si  Si746  1  0.635257  0.749966  0.316204  1
  Si  Si747  1  0.499958  0.811234  0.424713  1
  Si  Si748  1  0.499950  0.688700  0.424714  1
  Si  Si749  1  0.864794  0.439630  0.418002  1
  Si  Si750  1  0.364808  0.560310  0.318414  1
  Si  Si751  1  0.635122  0.560306  0.318413  1
  Si  Si752  1  0.217736  0.345801  0.332029  1
  Si  Si753  1  0.717734  0.654144  0.404387  1
  Si  Si754  1  0.282168  0.654142  0.404387  1
  Si  Si755  1  0.782161  0.345793  0.332028  1
  Si  Si756  1  0.249149  0.343018  0.400946  1
  Si  Si757  1  0.749151  0.656921  0.335472  1
  Si  Si758  1  0.250754  0.656924  0.335470  1
  Si  Si759  1  0.750755  0.343014  0.400945  1
  Si  Si760  1  0.364666  0.438662  0.318393  1
  Si  Si761  1  0.864659  0.561278  0.418019  1
  Si  Si762  1  0.135233  0.561281  0.418020  1
  Si  Si763  1  0.635240  0.438658  0.318393  1
  Si  Si764  1  0.135108  0.439632  0.418003  1
  Si  Si765  1  0.499958  0.188799  0.411128  1
  Si  Si766  1  0.499951  0.311140  0.411127  1
  Si  Si767  1  0.782167  0.154141  0.332028  1
  Si  Si768  1  0.217741  0.154144  0.332029  1
  Si  Si769  1  0.750755  0.156919  0.400944  1
  Si  Si770  1  0.249154  0.156923  0.400947  1
  Si  Si771  1  0.135397  0.311170  0.367214  1
  Si  Si772  1  0.864510  0.188769  0.367214  1
  Si  Si773  1  0.135406  0.188775  0.367215  1
  Si  Si774  1  0.864501  0.311164  0.367214  1
  Si  Si775  1  0.635245  0.061276  0.318394  1
  Si  Si776  1  0.364671  0.061281  0.318396  1
  Si  Si777  1  0.864794  0.060308  0.418004  1
  Si  Si778  1  0.135107  0.060311  0.418004  1
  Si  Si779  1  0.364584  0.249973  0.320666  1
  Si  Si780  1  0.635306  0.249966  0.320666  1
  Si  Si781  1  0.135260  0.249971  0.420213  1
  Si  Si782  1  0.864648  0.249965  0.420211  1
  Si  Si783  1  0.000000  0.311236  0.311703  1
  Si  Si784  1  -0.000000  0.188702  0.311703  1
  Si  Si785  1  0.499947  0.688803  0.740075  1
  Si  Si786  1  0.499953  0.811144  0.740075  1
  Si  Si787  1  0.750753  0.843023  0.750257  1
  Si  Si788  1  0.249153  0.843024  0.750257  1
  Si  Si789  1  0.864505  0.811169  0.783988  1
  Si  Si790  1  0.135403  0.688775  0.783989  1
  Si  Si791  1  0.864506  0.688774  0.783987  1
  Si  Si792  1  0.135402  0.811170  0.783988  1
  Si  Si793  1  0.864798  0.939639  0.733201  1
  Si  Si794  1  0.135111  0.939641  0.733202  1
  Si  Si795  1  0.864646  0.749978  0.730989  1
  Si  Si796  1  0.135258  0.749977  0.730991  1
  Si  Si797  1  0.864787  0.560317  0.733195  1
  Si  Si798  1  0.135100  0.560319  0.733196  1
  Si  Si799  1  0.717735  0.345806  0.746813  1
  Si  Si800  1  0.282158  0.345808  0.746814  1
  Si  Si801  1  0.249145  0.656927  0.750257  1
  Si  Si802  1  0.750755  0.656929  0.750255  1
  Si  Si803  1  0.864659  0.438669  0.733178  1
  Si  Si804  1  0.135233  0.438670  0.733179  1
  Si  Si805  1  0.282159  0.154154  0.746815  1
  Si  Si806  1  0.717738  0.154150  0.746815  1
  Si  Si807  1  0.635401  0.311173  0.781999  1
  Si  Si808  1  0.364502  0.188781  0.782000  1
  Si  Si809  1  0.635398  0.188779  0.782001  1
  Si  Si810  1  0.364503  0.311176  0.781999  1
  Si  Si811  1  0.135239  0.061289  0.733180  1
  Si  Si812  1  0.864664  0.061287  0.733180  1
  Si  Si813  1  0.864583  0.249976  0.735450  1
  Si  Si814  1  0.135306  0.249980  0.735451  1
  Si  Si815  1  0.499944  0.311244  0.726489  1
  Si  Si816  1  0.499952  0.188711  0.726490  1
  Si  Si817  1  0.000000  0.688799  0.601812  1
  Si  Si818  1  0.000000  0.811140  0.601814  1
  Si  Si819  1  0.282163  0.845799  0.680914  1
  Si  Si820  1  0.717748  0.845797  0.680912  1
  Si  Si821  1  0.250751  0.843019  0.611996  1
  Si  Si822  1  0.749146  0.843015  0.611994  1
  Si  Si823  1  0.364497  0.811172  0.645728  1
  Si  Si824  1  0.635393  0.688778  0.645725  1
  Si  Si825  1  0.364497  0.688778  0.645725  1
  Si  Si826  1  0.635394  0.811173  0.645727  1
  Si  Si827  1  0.135242  0.938663  0.694550  1
  Si  Si828  1  0.864668  0.938660  0.694549  1
  Si  Si829  1  0.364792  0.939632  0.594938  1
  Si  Si830  1  0.635105  0.939628  0.594936  1
  Si  Si831  1  0.135318  0.749968  0.692276  1
  Si  Si832  1  0.864596  0.749969  0.692274  1
  Si  Si833  1  0.364645  0.749974  0.592728  1
  Si  Si834  1  0.635257  0.749966  0.592728  1
  Si  Si835  1  0.499958  0.811234  0.701236  1
  Si  Si836  1  0.499950  0.688700  0.701237  1
  Si  Si837  1  0.864794  0.439630  0.694526  1
  Si  Si838  1  0.364808  0.560310  0.594938  1
  Si  Si839  1  0.635122  0.560306  0.594937  1
  Si  Si840  1  0.217736  0.345801  0.608552  1
  Si  Si841  1  0.717734  0.654144  0.680911  1
  Si  Si842  1  0.282168  0.654142  0.680911  1
  Si  Si843  1  0.782161  0.345793  0.608552  1
  Si  Si844  1  0.249149  0.343018  0.677469  1
  Si  Si845  1  0.749151  0.656921  0.611995  1
  Si  Si846  1  0.250754  0.656924  0.611993  1
  Si  Si847  1  0.750755  0.343014  0.677469  1
  Si  Si848  1  0.364666  0.438662  0.594917  1
  Si  Si849  1  0.864659  0.561278  0.694543  1
  Si  Si850  1  0.135233  0.561281  0.694544  1
  Si  Si851  1  0.635240  0.438658  0.594917  1
  Si  Si852  1  0.135108  0.439632  0.694527  1
  Si  Si853  1  0.499958  0.188799  0.687652  1
  Si  Si854  1  0.499951  0.311140  0.687651  1
  Si  Si855  1  0.782167  0.154141  0.608552  1
  Si  Si856  1  0.217741  0.154144  0.608553  1
  Si  Si857  1  0.750755  0.156919  0.677468  1
  Si  Si858  1  0.249154  0.156923  0.677470  1
  Si  Si859  1  0.135397  0.311170  0.643738  1
  Si  Si860  1  0.864510  0.188769  0.643737  1
  Si  Si861  1  0.135406  0.188775  0.643739  1
  Si  Si862  1  0.864501  0.311164  0.643737  1
  Si  Si863  1  0.635245  0.061276  0.594918  1
  Si  Si864  1  0.364671  0.061281  0.594919  1
  Si  Si865  1  0.864794  0.060308  0.694528  1
  Si  Si866  1  0.135107  0.060311  0.694528  1
  Si  Si867  1  0.364584  0.249973  0.597189  1
  Si  Si868  1  0.635306  0.249966  0.597190  1
  Si  Si869  1  0.135260  0.249971  0.696736  1
  Si  Si870  1  0.864648  0.249965  0.696735  1
  Si  Si871  1  0.000000  0.311236  0.588227  1
  Si  Si872  1  0.000000  0.188702  0.588227  1
  H  H873  1  0.293422  0.832037  0.065977  1
  H  H874  1  0.706473  0.667910  0.065976  1
  H  H875  1  0.293418  0.667917  0.065974  1
  H  H876  1  0.706462  0.832036  0.065975  1
  H  H877  1  0.173654  0.338590  0.062662  1
  H  H878  1  0.826244  0.338583  0.062661  1
  H  H879  1  0.826257  0.161352  0.062661  1
  H  H880  1  0.173668  0.161356  0.062663  1
  H  H881  1  0.826249  0.838588  0.812017  1
  H  H882  1  0.173652  0.838591  0.812017  1
  H  H883  1  0.173663  0.661359  0.812018  1
  H  H884  1  0.826235  0.661354  0.812015  1
  H  H885  1  0.706475  0.332033  0.808703  1
  H  H886  1  0.293431  0.167914  0.808704  1
  H  H887  1  0.706472  0.167915  0.808704  1
  H  H888  1  0.293429  0.332042  0.808702  1
