# generated using pymatgen
data_Si36H2O73
_symmetry_space_group_name_H-M   'P 1'
_cell_length_a   18.42952014
_cell_length_b   18.43506050
_cell_length_c   77.11361447
_cell_angle_alpha   90.00000000
_cell_angle_beta   90.00000000
_cell_angle_gamma   90.00000000
_symmetry_Int_Tables_number   1
_chemical_formula_structural   Si36H2O73
_chemical_formula_sum   'Si288 H16 O584'
_cell_volume   26199.2979831
_cell_formula_units_Z   8
loop_
 _symmetry_equiv_pos_site_id
 _symmetry_equiv_pos_as_xyz
  1  'x, y, z'
loop_
 _atom_site_type_symbol
 _atom_site_label
 _atom_site_symmetry_multiplicity
 _atom_site_fract_x
 _atom_site_fract_y
 _atom_site_fract_z
 _atom_site_occupancy
  O  O1  1  0.332381  0.811452  0.076512  1
  O  O2  1  0.188490  0.667365  0.076510  1
  O  O3  1  0.499940  0.311245  0.275616  1
  O  O4  1  0.499896  0.167330  0.241219  1
  O  O5  1  0.332454  0.188629  0.076552  1
  O  O6  1  0.167392  0.311356  0.196086  1
  O  O7  1  0.311317  0.167293  0.196100  1
  O  O8  1  0.499958  0.167409  0.150963  1
  O  O9  1  0.248951  0.249107  0.098678  1
  O  O10  1  0.092604  0.249119  0.136109  1
  O  O11  1  0.248988  0.092564  0.136114  1
  O  O12  1  0.248972  0.249182  0.293505  1
  O  O13  1  0.092588  0.249202  0.256071  1
  O  O14  1  0.248913  0.092611  0.256082  1
  O  O15  1  0.407257  0.250884  0.255662  1
  O  O16  1  0.250867  0.250882  0.218220  1
  O  O17  1  0.250924  0.250810  0.173965  1
  O  O18  1  0.407253  0.250837  0.136535  1
  O  O19  1  0.117716  0.250033  0.167949  1
  O  O20  1  0.382209  0.117651  0.136309  1
  O  O21  1  0.117643  0.250074  0.224229  1
  O  O22  1  0.382134  0.117718  0.255883  1
  O  O23  1  0.382180  0.249914  0.104692  1
  O  O24  1  0.249936  0.117601  0.167962  1
  O  O25  1  0.249904  0.117698  0.224237  1
  O  O26  1  0.382187  0.249976  0.287504  1
  O  O27  1  0.130871  0.313357  0.107866  1
  O  O28  1  0.130882  0.130955  0.151466  1
  O  O29  1  0.313089  0.130961  0.107864  1
  O  O30  1  0.130888  0.313428  0.284314  1
  O  O31  1  0.130843  0.131030  0.240725  1
  O  O32  1  0.313075  0.131003  0.284330  1
  O  O33  1  0.368953  0.186674  0.227418  1
  O  O34  1  0.369003  0.186566  0.164781  1
  O  O35  1  0.188502  0.000000  0.236092  1
  O  O36  1  0.188535  0.332686  0.076547  1
  O  O37  1  0.499912  0.311292  0.116564  1
  O  O38  1  0.332391  -0.000000  0.270529  1
  O  O39  1  0.311332  0.500054  0.275598  1
  O  O40  1  0.167525  0.499980  0.150981  1
  O  O41  1  0.167465  0.500011  0.241157  1
  O  O42  1  0.311372  0.499982  0.116534  1
  O  O43  1  0.250934  0.592618  0.255617  1
  O  O44  1  0.250906  0.407428  0.255643  1
  O  O45  1  0.250943  0.407402  0.136524  1
  O  O46  1  0.251001  0.592584  0.136486  1
  O  O47  1  0.249931  0.382307  0.104680  1
  O  O48  1  0.249961  0.617647  0.104638  1
  O  O49  1  0.249935  0.382396  0.287495  1
  O  O50  1  0.249899  0.617725  0.287463  1
  O  O51  1  0.117732  0.382290  0.136337  1
  O  O52  1  0.117776  0.617635  0.136304  1
  O  O53  1  0.117687  0.382380  0.255844  1
  O  O54  1  0.117719  0.617703  0.255804  1
  O  O55  1  0.186835  0.630981  0.227365  1
  O  O56  1  0.368992  0.631053  0.270985  1
  O  O57  1  0.186751  0.369034  0.227395  1
  O  O58  1  0.368992  0.369041  0.271009  1
  O  O59  1  0.368986  0.368981  0.121172  1
  O  O60  1  0.186841  0.368993  0.164778  1
  O  O61  1  0.369077  0.630996  0.121108  1
  O  O62  1  0.186900  0.630929  0.164741  1
  O  O63  1  0.499930  0.688807  0.275617  1
  O  O64  1  0.332445  0.000000  0.121627  1
  O  O65  1  0.332381  0.811452  0.315598  1
  O  O66  1  0.167523  0.688561  0.196055  1
  O  O67  1  0.311430  0.832634  0.196057  1
  O  O68  1  0.499958  0.832721  0.150915  1
  O  O69  1  0.248953  0.750860  0.098643  1
  O  O70  1  0.092644  0.750820  0.136093  1
  O  O71  1  0.248971  0.907387  0.136081  1
  O  O72  1  0.248908  0.750921  0.293468  1
  O  O73  1  0.092582  0.750871  0.256016  1
  O  O74  1  0.248943  0.907424  0.256034  1
  O  O75  1  0.407278  0.749192  0.255635  1
  O  O76  1  0.250946  0.749164  0.218189  1
  O  O77  1  0.251005  0.749074  0.173928  1
  O  O78  1  0.407337  0.749124  0.136471  1
  O  O79  1  0.117759  0.749873  0.167928  1
  O  O80  1  0.382179  0.882287  0.136265  1
  O  O81  1  0.117705  0.749939  0.224176  1
  O  O82  1  0.382168  0.882378  0.255849  1
  O  O83  1  0.382193  0.750094  0.104633  1
  O  O84  1  0.250023  0.882269  0.167926  1
  O  O85  1  0.249956  0.882381  0.224185  1
  O  O86  1  0.382145  0.750115  0.287472  1
  O  O87  1  0.130902  0.686612  0.107839  1
  O  O88  1  0.130925  0.868944  0.151450  1
  O  O89  1  0.313059  0.869043  0.107826  1
  O  O90  1  0.130851  0.686685  0.284270  1
  O  O91  1  0.130863  0.869007  0.240664  1
  O  O92  1  0.313034  0.869070  0.284286  1
  O  O93  1  0.369010  0.813401  0.227384  1
  O  O94  1  0.369065  0.813293  0.164729  1
  O  O95  1  0.188490  0.667365  0.315597  1
  O  O96  1  0.499943  0.832661  0.241207  1
  O  O97  1  0.188561  0.000000  0.156066  1
  O  O98  1  0.688530  0.167386  0.196081  1
  O  O99  1  0.832450  0.311445  0.196089  1
  O  O100  1  0.667394  0.188682  0.076541  1
  O  O101  1  0.811363  0.000000  0.156069  1
  O  O102  1  -0.000000  0.188767  0.236112  1
  O  O103  1  0.748942  0.250859  0.218215  1
  O  O104  1  0.592581  0.250820  0.255645  1
  O  O105  1  0.748973  0.250993  0.173958  1
  O  O106  1  0.592604  0.250991  0.136520  1
  O  O107  1  0.907282  0.249270  0.136111  1
  O  O108  1  0.750895  0.249246  0.098671  1
  O  O109  1  0.750926  0.092729  0.136099  1
  O  O110  1  0.750916  0.249104  0.293499  1
  O  O111  1  0.907254  0.249155  0.256067  1
  O  O112  1  0.750876  0.092566  0.256064  1
  O  O113  1  0.749913  0.117652  0.224216  1
  O  O114  1  0.617691  0.249917  0.287484  1
  O  O115  1  0.749936  0.117791  0.167945  1
  O  O116  1  0.617670  0.250073  0.104675  1
  O  O117  1  0.617661  0.117644  0.255871  1
  O  O118  1  0.882163  0.250046  0.224223  1
  O  O119  1  0.882200  0.250193  0.167951  1
  O  O120  1  0.617709  0.117815  0.136299  1
  O  O121  1  0.630846  0.186591  0.227400  1
  O  O122  1  0.630892  0.186779  0.164765  1
  O  O123  1  0.869002  0.313468  0.107863  1
  O  O124  1  0.686772  0.131114  0.107852  1
  O  O125  1  0.868994  0.131132  0.151460  1
  O  O126  1  0.868995  0.313369  0.284311  1
  O  O127  1  0.868957  0.130993  0.240714  1
  O  O128  1  0.686762  0.130943  0.284318  1
  O  O129  1  -0.000000  0.332696  0.270504  1
  O  O130  1  -0.000000  0.332727  0.121679  1
  O  O131  1  0.811347  0.332704  0.076540  1
  O  O132  1  0.000000  0.188811  0.156075  1
  O  O133  1  0.667486  0.000000  0.121629  1
  O  O134  1  0.832378  0.499979  0.241168  1
  O  O135  1  0.832415  0.500109  0.150988  1
  O  O136  1  0.688535  0.499983  0.275617  1
  O  O137  1  0.688575  0.500133  0.116539  1
  O  O138  1  0.748923  0.592573  0.255647  1
  O  O139  1  0.748957  0.407392  0.255647  1
  O  O140  1  0.748987  0.592712  0.136504  1
  O  O141  1  0.748951  0.407531  0.136519  1
  O  O142  1  0.882142  0.617648  0.255819  1
  O  O143  1  0.882177  0.382330  0.255843  1
  O  O144  1  0.882206  0.617775  0.136325  1
  O  O145  1  0.882174  0.382441  0.136328  1
  O  O146  1  0.749990  0.617645  0.287496  1
  O  O147  1  0.749925  0.382305  0.287493  1
  O  O148  1  0.750032  0.617806  0.104660  1
  O  O149  1  0.749952  0.382446  0.104672  1
  O  O150  1  0.630877  0.630988  0.271020  1
  O  O151  1  0.812980  0.630933  0.227383  1
  O  O152  1  0.630879  0.368973  0.270997  1
  O  O153  1  0.813069  0.369002  0.227400  1
  O  O154  1  0.630944  0.631154  0.121133  1
  O  O155  1  0.813040  0.631085  0.164757  1
  O  O156  1  0.630865  0.369147  0.121157  1
  O  O157  1  0.813082  0.369153  0.164774  1
  O  O158  1  0.688465  0.832708  0.196074  1
  O  O159  1  0.832355  0.688615  0.196069  1
  O  O160  1  0.667581  0.811506  0.076529  1
  O  O161  1  0.748887  0.749111  0.218199  1
  O  O162  1  0.592604  0.749119  0.255655  1
  O  O163  1  0.748929  0.749249  0.173939  1
  O  O164  1  0.592647  0.749279  0.136487  1
  O  O165  1  0.907324  0.750949  0.136109  1
  O  O166  1  0.751058  0.751024  0.098660  1
  O  O167  1  0.750969  0.907548  0.136102  1
  O  O168  1  0.750979  0.750857  0.293482  1
  O  O169  1  0.907276  0.750819  0.256034  1
  O  O170  1  0.750912  0.907394  0.256051  1
  O  O171  1  0.749892  0.882318  0.224207  1
  O  O172  1  0.617727  0.750070  0.287497  1
  O  O173  1  0.749935  0.882457  0.167948  1
  O  O174  1  0.617820  0.750238  0.104654  1
  O  O175  1  0.617696  0.882294  0.255866  1
  O  O176  1  0.882115  0.749884  0.224199  1
  O  O177  1  0.882169  0.750029  0.167948  1
  O  O178  1  0.617746  0.882458  0.136277  1
  O  O179  1  0.630849  0.813331  0.227399  1
  O  O180  1  0.630875  0.813497  0.164743  1
  O  O181  1  0.869093  0.686747  0.107857  1
  O  O182  1  0.686922  0.869203  0.107841  1
  O  O183  1  0.869036  0.869105  0.151467  1
  O  O184  1  0.869043  0.686606  0.284287  1
  O  O185  1  0.868974  0.868958  0.240684  1
  O  O186  1  0.686850  0.869013  0.284301  1
  O  O187  1  0.000000  0.811237  0.156073  1
  O  O188  1  0.500018  0.688887  0.116499  1
  O  O189  1  -0.000000  0.667311  0.270457  1
  O  O190  1  -0.000000  0.667357  0.121669  1
  O  O191  1  0.811468  0.667426  0.076532  1
  O  O192  1  -0.000000  0.811199  0.236052  1
  O  O193  1  0.811324  0.000000  0.236091  1
  O  O194  1  0.667432  -0.000000  0.270530  1
  O  O195  1  0.499940  0.311245  0.514702  1
  O  O196  1  0.499896  0.167330  0.480305  1
  O  O197  1  0.332454  0.188629  0.315638  1
  O  O198  1  0.167392  0.311356  0.435172  1
  O  O199  1  0.311317  0.167293  0.435186  1
  O  O200  1  0.499958  0.167409  0.390050  1
  O  O201  1  0.248951  0.249107  0.337764  1
  O  O202  1  0.092604  0.249119  0.375195  1
  O  O203  1  0.248988  0.092564  0.375200  1
  O  O204  1  0.248972  0.249182  0.532592  1
  O  O205  1  0.092588  0.249202  0.495158  1
  O  O206  1  0.248913  0.092611  0.495169  1
  O  O207  1  0.407257  0.250884  0.494748  1
  O  O208  1  0.250867  0.250882  0.457306  1
  O  O209  1  0.250924  0.250810  0.413051  1
  O  O210  1  0.407253  0.250837  0.375621  1
  O  O211  1  0.117716  0.250033  0.407035  1
  O  O212  1  0.382209  0.117651  0.375395  1
  O  O213  1  0.117643  0.250074  0.463315  1
  O  O214  1  0.382134  0.117718  0.494969  1
  O  O215  1  0.382180  0.249914  0.343778  1
  O  O216  1  0.249936  0.117601  0.407048  1
  O  O217  1  0.249904  0.117698  0.463324  1
  O  O218  1  0.382187  0.249976  0.526590  1
  O  O219  1  0.130871  0.313357  0.346952  1
  O  O220  1  0.130882  0.130955  0.390552  1
  O  O221  1  0.313089  0.130961  0.346950  1
  O  O222  1  0.130888  0.313428  0.523400  1
  O  O223  1  0.130843  0.131030  0.479812  1
  O  O224  1  0.313075  0.131003  0.523416  1
  O  O225  1  0.368953  0.186674  0.466504  1
  O  O226  1  0.369003  0.186566  0.403868  1
  O  O227  1  0.188502  0.000000  0.475179  1
  O  O228  1  0.188535  0.332686  0.315633  1
  O  O229  1  0.499912  0.311292  0.355650  1
  O  O230  1  0.332391  0.000000  0.509615  1
  O  O231  1  0.311332  0.500054  0.514684  1
  O  O232  1  0.167525  0.499980  0.390067  1
  O  O233  1  0.167465  0.500011  0.480243  1
  O  O234  1  0.311372  0.499982  0.355620  1
  O  O235  1  0.250934  0.592618  0.494703  1
  O  O236  1  0.250906  0.407428  0.494730  1
  O  O237  1  0.250943  0.407402  0.375611  1
  O  O238  1  0.251001  0.592584  0.375573  1
  O  O239  1  0.249931  0.382307  0.343766  1
  O  O240  1  0.249961  0.617647  0.343724  1
  O  O241  1  0.249935  0.382396  0.526582  1
  O  O242  1  0.249899  0.617725  0.526549  1
  O  O243  1  0.117732  0.382290  0.375424  1
  O  O244  1  0.117776  0.617635  0.375390  1
  O  O245  1  0.117687  0.382380  0.494930  1
  O  O246  1  0.117719  0.617703  0.494891  1
  O  O247  1  0.186835  0.630981  0.466451  1
  O  O248  1  0.368992  0.631053  0.510072  1
  O  O249  1  0.186751  0.369034  0.466481  1
  O  O250  1  0.368992  0.369041  0.510096  1
  O  O251  1  0.368986  0.368981  0.360258  1
  O  O252  1  0.186841  0.368993  0.403864  1
  O  O253  1  0.369077  0.630996  0.360195  1
  O  O254  1  0.186900  0.630929  0.403828  1
  O  O255  1  0.499930  0.688807  0.514704  1
  O  O256  1  0.332445  -0.000000  0.360713  1
  O  O257  1  0.332381  0.811452  0.554685  1
  O  O258  1  0.167523  0.688561  0.435141  1
  O  O259  1  0.311430  0.832634  0.435143  1
  O  O260  1  0.499958  0.832721  0.390002  1
  O  O261  1  0.248953  0.750860  0.337729  1
  O  O262  1  0.092644  0.750820  0.375179  1
  O  O263  1  0.248971  0.907387  0.375168  1
  O  O264  1  0.248908  0.750921  0.532555  1
  O  O265  1  0.092582  0.750871  0.495102  1
  O  O266  1  0.248943  0.907424  0.495120  1
  O  O267  1  0.407278  0.749192  0.494722  1
  O  O268  1  0.250946  0.749164  0.457275  1
  O  O269  1  0.251005  0.749074  0.413014  1
  O  O270  1  0.407337  0.749124  0.375557  1
  O  O271  1  0.117759  0.749873  0.407015  1
  O  O272  1  0.382179  0.882287  0.375352  1
  O  O273  1  0.117705  0.749939  0.463263  1
  O  O274  1  0.382168  0.882378  0.494935  1
  O  O275  1  0.382193  0.750094  0.343719  1
  O  O276  1  0.250023  0.882269  0.407012  1
  O  O277  1  0.249956  0.882381  0.463271  1
  O  O278  1  0.382145  0.750115  0.526558  1
  O  O279  1  0.130902  0.686612  0.346925  1
  O  O280  1  0.130925  0.868944  0.390536  1
  O  O281  1  0.313059  0.869043  0.346912  1
  O  O282  1  0.130851  0.686685  0.523356  1
  O  O283  1  0.130863  0.869007  0.479750  1
  O  O284  1  0.313034  0.869070  0.523373  1
  O  O285  1  0.369010  0.813401  0.466471  1
  O  O286  1  0.369065  0.813293  0.403815  1
  O  O287  1  0.188490  0.667365  0.554683  1
  O  O288  1  0.499943  0.832661  0.480293  1
  O  O289  1  0.188561  0.000000  0.395152  1
  O  O290  1  0.688530  0.167386  0.435167  1
  O  O291  1  0.832450  0.311445  0.435175  1
  O  O292  1  0.667394  0.188682  0.315627  1
  O  O293  1  0.811363  0.000000  0.395155  1
  O  O294  1  -0.000000  0.188767  0.475198  1
  O  O295  1  0.748942  0.250859  0.457302  1
  O  O296  1  0.592581  0.250820  0.494731  1
  O  O297  1  0.748973  0.250993  0.413044  1
  O  O298  1  0.592604  0.250991  0.375606  1
  O  O299  1  0.907282  0.249270  0.375197  1
  O  O300  1  0.750895  0.249246  0.337757  1
  O  O301  1  0.750926  0.092729  0.375186  1
  O  O302  1  0.750916  0.249104  0.532585  1
  O  O303  1  0.907254  0.249155  0.495153  1
  O  O304  1  0.750876  0.092566  0.495150  1
  O  O305  1  0.749913  0.117652  0.463302  1
  O  O306  1  0.617691  0.249917  0.526571  1
  O  O307  1  0.749936  0.117791  0.407032  1
  O  O308  1  0.617670  0.250073  0.343761  1
  O  O309  1  0.617661  0.117644  0.494957  1
  O  O310  1  0.882163  0.250046  0.463310  1
  O  O311  1  0.882200  0.250193  0.407037  1
  O  O312  1  0.617709  0.117815  0.375385  1
  O  O313  1  0.630846  0.186591  0.466487  1
  O  O314  1  0.630892  0.186779  0.403851  1
  O  O315  1  0.869002  0.313468  0.346949  1
  O  O316  1  0.686772  0.131114  0.346938  1
  O  O317  1  0.868994  0.131132  0.390547  1
  O  O318  1  0.868995  0.313369  0.523397  1
  O  O319  1  0.868957  0.130993  0.479801  1
  O  O320  1  0.686762  0.130943  0.523404  1
  O  O321  1  0.000000  0.332696  0.509590  1
  O  O322  1  0.000000  0.332727  0.360765  1
  O  O323  1  0.811347  0.332704  0.315627  1
  O  O324  1  -0.000000  0.188811  0.395161  1
  O  O325  1  0.667486  -0.000000  0.360715  1
  O  O326  1  0.832378  0.499979  0.480255  1
  O  O327  1  0.832415  0.500109  0.390074  1
  O  O328  1  0.688535  0.499983  0.514704  1
  O  O329  1  0.688575  0.500133  0.355625  1
  O  O330  1  0.748923  0.592573  0.494733  1
  O  O331  1  0.748957  0.407392  0.494734  1
  O  O332  1  0.748987  0.592712  0.375590  1
  O  O333  1  0.748951  0.407531  0.375605  1
  O  O334  1  0.882142  0.617648  0.494905  1
  O  O335  1  0.882177  0.382330  0.494929  1
  O  O336  1  0.882206  0.617775  0.375411  1
  O  O337  1  0.882174  0.382441  0.375414  1
  O  O338  1  0.749990  0.617645  0.526582  1
  O  O339  1  0.749925  0.382305  0.526579  1
  O  O340  1  0.750032  0.617806  0.343746  1
  O  O341  1  0.749952  0.382446  0.343759  1
  O  O342  1  0.630877  0.630988  0.510107  1
  O  O343  1  0.812980  0.630933  0.466470  1
  O  O344  1  0.630879  0.368973  0.510083  1
  O  O345  1  0.813069  0.369002  0.466486  1
  O  O346  1  0.630944  0.631154  0.360219  1
  O  O347  1  0.813040  0.631085  0.403844  1
  O  O348  1  0.630865  0.369147  0.360244  1
  O  O349  1  0.813082  0.369153  0.403861  1
  O  O350  1  0.688465  0.832708  0.435160  1
  O  O351  1  0.832355  0.688615  0.435156  1
  O  O352  1  0.667581  0.811506  0.315615  1
  O  O353  1  0.748887  0.749111  0.457285  1
  O  O354  1  0.592604  0.749119  0.494741  1
  O  O355  1  0.748929  0.749249  0.413026  1
  O  O356  1  0.592647  0.749279  0.375573  1
  O  O357  1  0.907324  0.750949  0.375195  1
  O  O358  1  0.751058  0.751024  0.337747  1
  O  O359  1  0.750969  0.907548  0.375188  1
  O  O360  1  0.750979  0.750857  0.532568  1
  O  O361  1  0.907276  0.750819  0.495120  1
  O  O362  1  0.750912  0.907394  0.495138  1
  O  O363  1  0.749892  0.882318  0.463293  1
  O  O364  1  0.617727  0.750070  0.526584  1
  O  O365  1  0.749935  0.882457  0.407034  1
  O  O366  1  0.617820  0.750238  0.343740  1
  O  O367  1  0.617696  0.882294  0.494952  1
  O  O368  1  0.882115  0.749884  0.463286  1
  O  O369  1  0.882169  0.750029  0.407035  1
  O  O370  1  0.617746  0.882458  0.375363  1
  O  O371  1  0.630849  0.813331  0.466486  1
  O  O372  1  0.630875  0.813497  0.403829  1
  O  O373  1  0.869093  0.686747  0.346943  1
  O  O374  1  0.686922  0.869203  0.346928  1
  O  O375  1  0.869036  0.869105  0.390553  1
  O  O376  1  0.869043  0.686606  0.523373  1
  O  O377  1  0.868974  0.868958  0.479770  1
  O  O378  1  0.686850  0.869013  0.523387  1
  O  O379  1  -0.000000  0.811237  0.395160  1
  O  O380  1  0.500018  0.688887  0.355585  1
  O  O381  1  -0.000000  0.667311  0.509543  1
  O  O382  1  0.000000  0.667357  0.360755  1
  O  O383  1  0.811468  0.667426  0.315618  1
  O  O384  1  -0.000000  0.811199  0.475138  1
  O  O385  1  0.811324  0.000000  0.475178  1
  O  O386  1  0.667432  -0.000000  0.509617  1
  O  O387  1  0.499940  0.311245  0.753788  1
  O  O388  1  0.499896  0.167330  0.719391  1
  O  O389  1  0.332454  0.188629  0.554724  1
  O  O390  1  0.167392  0.311356  0.674258  1
  O  O391  1  0.311317  0.167293  0.674272  1
  O  O392  1  0.499958  0.167409  0.629136  1
  O  O393  1  0.248951  0.249107  0.576850  1
  O  O394  1  0.092604  0.249119  0.614282  1
  O  O395  1  0.248988  0.092564  0.614286  1
  O  O396  1  0.248972  0.249182  0.771678  1
  O  O397  1  0.092588  0.249202  0.734244  1
  O  O398  1  0.248913  0.092611  0.734255  1
  O  O399  1  0.407257  0.250884  0.733834  1
  O  O400  1  0.250867  0.250882  0.696392  1
  O  O401  1  0.250924  0.250810  0.652138  1
  O  O402  1  0.407253  0.250837  0.614707  1
  O  O403  1  0.117716  0.250033  0.646121  1
  O  O404  1  0.382209  0.117651  0.614481  1
  O  O405  1  0.117643  0.250074  0.702401  1
  O  O406  1  0.382134  0.117718  0.734055  1
  O  O407  1  0.382180  0.249914  0.582864  1
  O  O408  1  0.249936  0.117601  0.646135  1
  O  O409  1  0.249904  0.117698  0.702410  1
  O  O410  1  0.382187  0.249976  0.765676  1
  O  O411  1  0.130871  0.313357  0.586039  1
  O  O412  1  0.130882  0.130955  0.629639  1
  O  O413  1  0.313089  0.130961  0.586037  1
  O  O414  1  0.130888  0.313428  0.762486  1
  O  O415  1  0.130843  0.131030  0.718898  1
  O  O416  1  0.313075  0.131003  0.762503  1
  O  O417  1  0.368953  0.186674  0.705590  1
  O  O418  1  0.369003  0.186566  0.642954  1
  O  O419  1  0.188502  0.000000  0.714265  1
  O  O420  1  0.188535  0.332686  0.554719  1
  O  O421  1  0.499912  0.311292  0.594737  1
  O  O422  1  0.332391  0.000000  0.748701  1
  O  O423  1  0.311332  0.500054  0.753770  1
  O  O424  1  0.167525  0.499980  0.629153  1
  O  O425  1  0.167465  0.500011  0.719330  1
  O  O426  1  0.311372  0.499982  0.594707  1
  O  O427  1  0.250934  0.592618  0.733790  1
  O  O428  1  0.250906  0.407428  0.733816  1
  O  O429  1  0.250943  0.407402  0.614697  1
  O  O430  1  0.251001  0.592584  0.614659  1
  O  O431  1  0.249931  0.382307  0.582852  1
  O  O432  1  0.249961  0.617647  0.582810  1
  O  O433  1  0.249935  0.382396  0.765668  1
  O  O434  1  0.249899  0.617725  0.765635  1
  O  O435  1  0.117732  0.382290  0.614510  1
  O  O436  1  0.117776  0.617635  0.614476  1
  O  O437  1  0.117687  0.382380  0.734016  1
  O  O438  1  0.117719  0.617703  0.733977  1
  O  O439  1  0.186835  0.630981  0.705538  1
  O  O440  1  0.368992  0.631053  0.749158  1
  O  O441  1  0.186751  0.369034  0.705568  1
  O  O442  1  0.368992  0.369041  0.749182  1
  O  O443  1  0.368986  0.368981  0.599345  1
  O  O444  1  0.186841  0.368993  0.642951  1
  O  O445  1  0.369077  0.630996  0.599281  1
  O  O446  1  0.186900  0.630929  0.642914  1
  O  O447  1  0.499930  0.688807  0.753790  1
  O  O448  1  0.332445  0.000000  0.599800  1
  O  O449  1  0.332381  0.811452  0.793771  1
  O  O450  1  0.167523  0.688561  0.674228  1
  O  O451  1  0.311430  0.832634  0.674230  1
  O  O452  1  0.499958  0.832721  0.629088  1
  O  O453  1  0.248953  0.750860  0.576816  1
  O  O454  1  0.092644  0.750820  0.614266  1
  O  O455  1  0.248971  0.907387  0.614254  1
  O  O456  1  0.248908  0.750921  0.771641  1
  O  O457  1  0.092582  0.750871  0.734188  1
  O  O458  1  0.248943  0.907424  0.734206  1
  O  O459  1  0.407278  0.749192  0.733808  1
  O  O460  1  0.250946  0.749164  0.696361  1
  O  O461  1  0.251005  0.749074  0.652100  1
  O  O462  1  0.407337  0.749124  0.614644  1
  O  O463  1  0.117759  0.749873  0.646101  1
  O  O464  1  0.382179  0.882287  0.614438  1
  O  O465  1  0.117705  0.749939  0.702349  1
  O  O466  1  0.382168  0.882378  0.734021  1
  O  O467  1  0.382193  0.750094  0.582806  1
  O  O468  1  0.250023  0.882269  0.646098  1
  O  O469  1  0.249956  0.882381  0.702357  1
  O  O470  1  0.382145  0.750115  0.765644  1
  O  O471  1  0.130902  0.686612  0.586011  1
  O  O472  1  0.130925  0.868944  0.629622  1
  O  O473  1  0.313059  0.869043  0.585998  1
  O  O474  1  0.130851  0.686685  0.762442  1
  O  O475  1  0.130863  0.869007  0.718836  1
  O  O476  1  0.313034  0.869070  0.762459  1
  O  O477  1  0.369010  0.813401  0.705557  1
  O  O478  1  0.369065  0.813293  0.642902  1
  O  O479  1  0.188490  0.667365  0.793769  1
  O  O480  1  0.499943  0.832661  0.719379  1
  O  O481  1  0.188561  0.000000  0.634238  1
  O  O482  1  0.688530  0.167386  0.674253  1
  O  O483  1  0.832450  0.311445  0.674262  1
  O  O484  1  0.667394  0.188682  0.554713  1
  O  O485  1  0.811363  0.000000  0.634241  1
  O  O486  1  -0.000000  0.188767  0.714284  1
  O  O487  1  0.748942  0.250859  0.696388  1
  O  O488  1  0.592581  0.250820  0.733817  1
  O  O489  1  0.748973  0.250993  0.652130  1
  O  O490  1  0.592604  0.250991  0.614692  1
  O  O491  1  0.907282  0.249270  0.614284  1
  O  O492  1  0.750895  0.249246  0.576844  1
  O  O493  1  0.750926  0.092729  0.614272  1
  O  O494  1  0.750916  0.249104  0.771671  1
  O  O495  1  0.907254  0.249155  0.734240  1
  O  O496  1  0.750876  0.092566  0.734237  1
  O  O497  1  0.749913  0.117652  0.702389  1
  O  O498  1  0.617691  0.249917  0.765657  1
  O  O499  1  0.749936  0.117791  0.646118  1
  O  O500  1  0.617670  0.250073  0.582847  1
  O  O501  1  0.617661  0.117644  0.734043  1
  O  O502  1  0.882163  0.250046  0.702396  1
  O  O503  1  0.882200  0.250193  0.646123  1
  O  O504  1  0.617709  0.117815  0.614471  1
  O  O505  1  0.630846  0.186591  0.705573  1
  O  O506  1  0.630892  0.186779  0.642937  1
  O  O507  1  0.869002  0.313468  0.586035  1
  O  O508  1  0.686772  0.131114  0.586024  1
  O  O509  1  0.868994  0.131132  0.629633  1
  O  O510  1  0.868995  0.313369  0.762483  1
  O  O511  1  0.868957  0.130993  0.718887  1
  O  O512  1  0.686762  0.130943  0.762490  1
  O  O513  1  -0.000000  0.332696  0.748676  1
  O  O514  1  -0.000000  0.332727  0.599852  1
  O  O515  1  0.811347  0.332704  0.554713  1
  O  O516  1  -0.000000  0.188811  0.634248  1
  O  O517  1  0.667486  0.000000  0.599802  1
  O  O518  1  0.832378  0.499979  0.719341  1
  O  O519  1  0.832415  0.500109  0.629160  1
  O  O520  1  0.688535  0.499983  0.753790  1
  O  O521  1  0.688575  0.500133  0.594711  1
  O  O522  1  0.748923  0.592573  0.733820  1
  O  O523  1  0.748957  0.407392  0.733820  1
  O  O524  1  0.748987  0.592712  0.614677  1
  O  O525  1  0.748951  0.407531  0.614691  1
  O  O526  1  0.882142  0.617648  0.733991  1
  O  O527  1  0.882177  0.382330  0.734015  1
  O  O528  1  0.882206  0.617775  0.614497  1
  O  O529  1  0.882174  0.382441  0.614500  1
  O  O530  1  0.749990  0.617645  0.765668  1
  O  O531  1  0.749925  0.382305  0.765665  1
  O  O532  1  0.750032  0.617806  0.582832  1
  O  O533  1  0.749952  0.382446  0.582845  1
  O  O534  1  0.630877  0.630988  0.749193  1
  O  O535  1  0.812980  0.630933  0.705556  1
  O  O536  1  0.630879  0.368973  0.749169  1
  O  O537  1  0.813069  0.369002  0.705572  1
  O  O538  1  0.630944  0.631154  0.599306  1
  O  O539  1  0.813040  0.631085  0.642930  1
  O  O540  1  0.630865  0.369147  0.599330  1
  O  O541  1  0.813082  0.369153  0.642947  1
  O  O542  1  0.688465  0.832708  0.674246  1
  O  O543  1  0.832355  0.688615  0.674242  1
  O  O544  1  0.667581  0.811506  0.554701  1
  O  O545  1  0.748887  0.749111  0.696371  1
  O  O546  1  0.592604  0.749119  0.733828  1
  O  O547  1  0.748929  0.749249  0.652112  1
  O  O548  1  0.592647  0.749279  0.614660  1
  O  O549  1  0.907324  0.750949  0.614282  1
  O  O550  1  0.751058  0.751024  0.576833  1
  O  O551  1  0.750969  0.907548  0.614274  1
  O  O552  1  0.750979  0.750857  0.771654  1
  O  O553  1  0.907276  0.750819  0.734207  1
  O  O554  1  0.750912  0.907394  0.734224  1
  O  O555  1  0.749892  0.882318  0.702379  1
  O  O556  1  0.617727  0.750070  0.765670  1
  O  O557  1  0.749935  0.882457  0.646121  1
  O  O558  1  0.617820  0.750238  0.582827  1
  O  O559  1  0.617696  0.882294  0.734038  1
  O  O560  1  0.882115  0.749884  0.702372  1
  O  O561  1  0.882169  0.750029  0.646121  1
  O  O562  1  0.617746  0.882458  0.614449  1
  O  O563  1  0.630849  0.813331  0.705572  1
  O  O564  1  0.630875  0.813497  0.642915  1
  O  O565  1  0.869093  0.686747  0.586030  1
  O  O566  1  0.686922  0.869203  0.586014  1
  O  O567  1  0.869036  0.869105  0.629639  1
  O  O568  1  0.869043  0.686606  0.762459  1
  O  O569  1  0.868974  0.868958  0.718857  1
  O  O570  1  0.686850  0.869013  0.762474  1
  O  O571  1  -0.000000  0.811237  0.634246  1
  O  O572  1  0.500018  0.688887  0.594672  1
  O  O573  1  -0.000000  0.667311  0.748630  1
  O  O574  1  0.000000  0.667357  0.599841  1
  O  O575  1  0.811468  0.667426  0.554705  1
  O  O576  1  -0.000000  0.811199  0.714224  1
  O  O577  1  0.811324  0.000000  0.714264  1
  O  O578  1  0.667432  0.000000  0.748703  1
  O  O579  1  0.332454  0.188629  0.793811  1
  O  O580  1  0.188535  0.332686  0.793806  1
  O  O581  1  0.667394  0.188682  0.793800  1
  O  O582  1  0.811347  0.332704  0.793799  1
  O  O583  1  0.667581  0.811506  0.793788  1
  O  O584  1  0.811468  0.667426  0.793791  1
  Si  Si585  1  0.201812  0.083640  0.239125  1
  Si  Si586  1  0.319845  0.201963  0.295650  1
  Si  Si587  1  0.201837  0.320037  0.096535  1
  Si  Si588  1  0.083608  0.201993  0.153060  1
  Si  Si589  1  0.319862  0.083607  0.124826  1
  Si  Si590  1  0.201859  0.320112  0.295643  1
  Si  Si591  1  0.083560  0.202055  0.239126  1
  Si  Si592  1  0.319802  0.083659  0.267365  1
  Si  Si593  1  0.083602  0.320038  0.124847  1
  Si  Si594  1  0.319842  0.201910  0.096541  1
  Si  Si595  1  0.201862  0.083570  0.153066  1
  Si  Si596  1  0.416248  0.179983  0.244394  1
  Si  Si597  1  0.179979  0.298076  0.216076  1
  Si  Si598  1  0.298026  0.179876  0.176109  1
  Si  Si599  1  0.416270  0.297956  0.119583  1
  Si  Si600  1  0.297991  0.179958  0.216087  1
  Si  Si601  1  0.416274  0.298014  0.272610  1
  Si  Si602  1  0.416285  0.179933  0.147801  1
  Si  Si603  1  0.180051  0.298035  0.176099  1
  Si  Si604  1  0.083595  0.320110  0.267336  1
  Si  Si605  1  0.180066  0.583635  0.244328  1
  Si  Si606  1  0.180030  0.416400  0.244356  1
  Si  Si607  1  0.298084  0.583619  0.119526  1
  Si  Si608  1  0.298027  0.416376  0.119565  1
  Si  Si609  1  0.298014  0.583670  0.272578  1
  Si  Si610  1  0.298012  0.416426  0.272599  1
  Si  Si611  1  0.180080  0.416347  0.147815  1
  Si  Si612  1  0.180141  0.583584  0.147778  1
  Si  Si613  1  0.319789  0.798128  0.295610  1
  Si  Si614  1  0.083594  0.679980  0.267287  1
  Si  Si615  1  0.201842  0.916396  0.239077  1
  Si  Si616  1  0.180123  0.701867  0.176067  1
  Si  Si617  1  0.201847  0.679929  0.096500  1
  Si  Si618  1  0.083628  0.797929  0.153046  1
  Si  Si619  1  0.319836  0.916371  0.124792  1
  Si  Si620  1  0.201797  0.679990  0.295607  1
  Si  Si621  1  0.083576  0.797982  0.239063  1
  Si  Si622  1  0.319803  0.916423  0.267325  1
  Si  Si623  1  0.083652  0.679925  0.124823  1
  Si  Si624  1  0.319814  0.798097  0.096500  1
  Si  Si625  1  0.201898  0.916329  0.153044  1
  Si  Si626  1  0.416277  0.820086  0.244366  1
  Si  Si627  1  0.180082  0.701933  0.216043  1
  Si  Si628  1  0.298124  0.819997  0.176068  1
  Si  Si629  1  0.416343  0.702041  0.119514  1
  Si  Si630  1  0.298062  0.820090  0.216047  1
  Si  Si631  1  0.416281  0.702074  0.272587  1
  Si  Si632  1  0.416316  0.820011  0.147745  1
  Si  Si633  1  0.819855  0.298200  0.176097  1
  Si  Si634  1  0.583602  0.180088  0.147787  1
  Si  Si635  1  0.701825  0.179934  0.216073  1
  Si  Si636  1  0.583588  0.297952  0.272594  1
  Si  Si637  1  0.701857  0.180064  0.176094  1
  Si  Si638  1  0.583585  0.298109  0.119568  1
  Si  Si639  1  0.583563  0.179914  0.244380  1
  Si  Si640  1  0.819829  0.298062  0.216075  1
  Si  Si641  1  0.916286  0.320163  0.124842  1
  Si  Si642  1  0.680004  0.202055  0.096528  1
  Si  Si643  1  0.798028  0.083740  0.153056  1
  Si  Si644  1  0.798022  0.320040  0.295639  1
  Si  Si645  1  0.916246  0.202017  0.239119  1
  Si  Si646  1  0.680007  0.083599  0.267352  1
  Si  Si647  1  0.798036  0.320155  0.096532  1
  Si  Si648  1  0.916292  0.202144  0.153061  1
  Si  Si649  1  0.680043  0.083766  0.124815  1
  Si  Si650  1  0.916280  0.320059  0.267333  1
  Si  Si651  1  0.680020  0.201911  0.295636  1
  Si  Si652  1  0.797990  0.083599  0.239109  1
  Si  Si653  1  0.701910  0.583755  0.119544  1
  Si  Si654  1  0.701846  0.416363  0.272602  1
  Si  Si655  1  0.701858  0.583606  0.272610  1
  Si  Si656  1  0.701858  0.416511  0.119560  1
  Si  Si657  1  0.819765  0.583595  0.244349  1
  Si  Si658  1  0.819828  0.416362  0.244360  1
  Si  Si659  1  0.819839  0.583724  0.147798  1
  Si  Si660  1  0.819823  0.416489  0.147807  1
  Si  Si661  1  0.798006  0.916357  0.239094  1
  Si  Si662  1  0.680110  0.798080  0.295629  1
  Si  Si663  1  0.583629  0.820169  0.147758  1
  Si  Si664  1  0.819796  0.702022  0.176083  1
  Si  Si665  1  0.701790  0.820051  0.216062  1
  Si  Si666  1  0.583599  0.702023  0.272610  1
  Si  Si667  1  0.701816  0.820175  0.176083  1
  Si  Si668  1  0.583663  0.702178  0.119532  1
  Si  Si669  1  0.583589  0.820007  0.244382  1
  Si  Si670  1  0.819753  0.701883  0.216059  1
  Si  Si671  1  0.916339  0.680048  0.124842  1
  Si  Si672  1  0.680186  0.798247  0.096519  1
  Si  Si673  1  0.798057  0.916496  0.153061  1
  Si  Si674  1  0.798103  0.679939  0.295627  1
  Si  Si675  1  0.916258  0.797934  0.239082  1
  Si  Si676  1  0.680046  0.916365  0.267341  1
  Si  Si677  1  0.798146  0.680076  0.096520  1
  Si  Si678  1  0.916309  0.798065  0.153062  1
  Si  Si679  1  0.680116  0.916532  0.124808  1
  Si  Si680  1  0.916282  0.679919  0.267301  1
  Si  Si681  1  0.201812  0.083640  0.478211  1
  Si  Si682  1  0.319845  0.201963  0.534736  1
  Si  Si683  1  0.201837  0.320037  0.335622  1
  Si  Si684  1  0.083608  0.201993  0.392146  1
  Si  Si685  1  0.319862  0.083607  0.363913  1
  Si  Si686  1  0.201859  0.320112  0.534729  1
  Si  Si687  1  0.083560  0.202055  0.478212  1
  Si  Si688  1  0.319802  0.083659  0.506451  1
  Si  Si689  1  0.083602  0.320038  0.363934  1
  Si  Si690  1  0.319842  0.201910  0.335628  1
  Si  Si691  1  0.201862  0.083570  0.392152  1
  Si  Si692  1  0.416248  0.179983  0.483481  1
  Si  Si693  1  0.179979  0.298076  0.455162  1
  Si  Si694  1  0.298026  0.179876  0.415195  1
  Si  Si695  1  0.416270  0.297956  0.358669  1
  Si  Si696  1  0.297991  0.179958  0.455173  1
  Si  Si697  1  0.416274  0.298014  0.511697  1
  Si  Si698  1  0.416285  0.179933  0.386887  1
  Si  Si699  1  0.180051  0.298035  0.415185  1
  Si  Si700  1  0.083595  0.320110  0.506423  1
  Si  Si701  1  0.180066  0.583635  0.483415  1
  Si  Si702  1  0.180030  0.416400  0.483443  1
  Si  Si703  1  0.298084  0.583619  0.358612  1
  Si  Si704  1  0.298027  0.416376  0.358651  1
  Si  Si705  1  0.298014  0.583670  0.511665  1
  Si  Si706  1  0.298012  0.416426  0.511686  1
  Si  Si707  1  0.180080  0.416347  0.386901  1
  Si  Si708  1  0.180141  0.583584  0.386865  1
  Si  Si709  1  0.319789  0.798128  0.534697  1
  Si  Si710  1  0.083594  0.679980  0.506373  1
  Si  Si711  1  0.201842  0.916396  0.478163  1
  Si  Si712  1  0.180123  0.701867  0.415153  1
  Si  Si713  1  0.201847  0.679929  0.335587  1
  Si  Si714  1  0.083628  0.797929  0.392132  1
  Si  Si715  1  0.319836  0.916371  0.363878  1
  Si  Si716  1  0.201797  0.679990  0.534693  1
  Si  Si717  1  0.083576  0.797982  0.478150  1
  Si  Si718  1  0.319803  0.916423  0.506411  1
  Si  Si719  1  0.083652  0.679925  0.363910  1
  Si  Si720  1  0.319814  0.798097  0.335586  1
  Si  Si721  1  0.201898  0.916329  0.392130  1
  Si  Si722  1  0.416277  0.820086  0.483452  1
  Si  Si723  1  0.180082  0.701933  0.455129  1
  Si  Si724  1  0.298124  0.819997  0.415154  1
  Si  Si725  1  0.416343  0.702041  0.358601  1
  Si  Si726  1  0.298062  0.820090  0.455134  1
  Si  Si727  1  0.416281  0.702074  0.511673  1
  Si  Si728  1  0.416316  0.820011  0.386832  1
  Si  Si729  1  0.819855  0.298200  0.415184  1
  Si  Si730  1  0.583602  0.180088  0.386873  1
  Si  Si731  1  0.701825  0.179934  0.455159  1
  Si  Si732  1  0.583588  0.297952  0.511680  1
  Si  Si733  1  0.701857  0.180064  0.415180  1
  Si  Si734  1  0.583585  0.298109  0.358655  1
  Si  Si735  1  0.583563  0.179914  0.483466  1
  Si  Si736  1  0.819829  0.298062  0.455161  1
  Si  Si737  1  0.916286  0.320163  0.363928  1
  Si  Si738  1  0.680004  0.202055  0.335614  1
  Si  Si739  1  0.798028  0.083740  0.392142  1
  Si  Si740  1  0.798022  0.320040  0.534726  1
  Si  Si741  1  0.916246  0.202017  0.478205  1
  Si  Si742  1  0.680007  0.083599  0.506439  1
  Si  Si743  1  0.798036  0.320155  0.335618  1
  Si  Si744  1  0.916292  0.202144  0.392147  1
  Si  Si745  1  0.680043  0.083766  0.363901  1
  Si  Si746  1  0.916280  0.320059  0.506419  1
  Si  Si747  1  0.680020  0.201911  0.534722  1
  Si  Si748  1  0.797990  0.083599  0.478195  1
  Si  Si749  1  0.701910  0.583755  0.358630  1
  Si  Si750  1  0.701846  0.416363  0.511689  1
  Si  Si751  1  0.701858  0.583606  0.511697  1
  Si  Si752  1  0.701858  0.416511  0.358646  1
  Si  Si753  1  0.819765  0.583595  0.483435  1
  Si  Si754  1  0.819828  0.416362  0.483446  1
  Si  Si755  1  0.819839  0.583724  0.386884  1
  Si  Si756  1  0.819823  0.416489  0.386894  1
  Si  Si757  1  0.798006  0.916357  0.478180  1
  Si  Si758  1  0.680110  0.798080  0.534715  1
  Si  Si759  1  0.583629  0.820169  0.386844  1
  Si  Si760  1  0.819796  0.702022  0.415169  1
  Si  Si761  1  0.701790  0.820051  0.455148  1
  Si  Si762  1  0.583599  0.702023  0.511697  1
  Si  Si763  1  0.701816  0.820175  0.415169  1
  Si  Si764  1  0.583663  0.702178  0.358619  1
  Si  Si765  1  0.583589  0.820007  0.483469  1
  Si  Si766  1  0.819753  0.701883  0.455146  1
  Si  Si767  1  0.916339  0.680048  0.363928  1
  Si  Si768  1  0.680186  0.798247  0.335605  1
  Si  Si769  1  0.798057  0.916496  0.392147  1
  Si  Si770  1  0.798103  0.679939  0.534714  1
  Si  Si771  1  0.916258  0.797934  0.478168  1
  Si  Si772  1  0.680046  0.916365  0.506427  1
  Si  Si773  1  0.798146  0.680076  0.335606  1
  Si  Si774  1  0.916309  0.798065  0.392148  1
  Si  Si775  1  0.680116  0.916532  0.363894  1
  Si  Si776  1  0.916282  0.679919  0.506387  1
  Si  Si777  1  0.201812  0.083640  0.717297  1
  Si  Si778  1  0.319845  0.201963  0.773823  1
  Si  Si779  1  0.201837  0.320037  0.574708  1
  Si  Si780  1  0.083608  0.201993  0.631232  1
  Si  Si781  1  0.319862  0.083607  0.602999  1
  Si  Si782  1  0.201859  0.320112  0.773815  1
  Si  Si783  1  0.083560  0.202055  0.717298  1
  Si  Si784  1  0.319802  0.083659  0.745537  1
  Si  Si785  1  0.083602  0.320038  0.603020  1
  Si  Si786  1  0.319842  0.201910  0.574714  1
  Si  Si787  1  0.201862  0.083570  0.631238  1
  Si  Si788  1  0.416248  0.179983  0.722567  1
  Si  Si789  1  0.179979  0.298076  0.694249  1
  Si  Si790  1  0.298026  0.179876  0.654281  1
  Si  Si791  1  0.416270  0.297956  0.597755  1
  Si  Si792  1  0.297991  0.179958  0.694260  1
  Si  Si793  1  0.416274  0.298014  0.750783  1
  Si  Si794  1  0.416285  0.179933  0.625973  1
  Si  Si795  1  0.180051  0.298035  0.654271  1
  Si  Si796  1  0.083595  0.320110  0.745509  1
  Si  Si797  1  0.180066  0.583635  0.722501  1
  Si  Si798  1  0.180030  0.416400  0.722529  1
  Si  Si799  1  0.298084  0.583619  0.597699  1
  Si  Si800  1  0.298027  0.416376  0.597737  1
  Si  Si801  1  0.298014  0.583670  0.750751  1
  Si  Si802  1  0.298012  0.416426  0.750772  1
  Si  Si803  1  0.180080  0.416347  0.625987  1
  Si  Si804  1  0.180141  0.583584  0.625951  1
  Si  Si805  1  0.319789  0.798128  0.773783  1
  Si  Si806  1  0.083594  0.679980  0.745460  1
  Si  Si807  1  0.201842  0.916396  0.717249  1
  Si  Si808  1  0.180123  0.701867  0.654239  1
  Si  Si809  1  0.201847  0.679929  0.574673  1
  Si  Si810  1  0.083628  0.797929  0.631218  1
  Si  Si811  1  0.319836  0.916371  0.602964  1
  Si  Si812  1  0.201797  0.679990  0.773780  1
  Si  Si813  1  0.083576  0.797982  0.717236  1
  Si  Si814  1  0.319803  0.916423  0.745498  1
  Si  Si815  1  0.083652  0.679925  0.602996  1
  Si  Si816  1  0.319814  0.798097  0.574673  1
  Si  Si817  1  0.201898  0.916329  0.631217  1
  Si  Si818  1  0.416277  0.820086  0.722538  1
  Si  Si819  1  0.180082  0.701933  0.694215  1
  Si  Si820  1  0.298124  0.819997  0.654241  1
  Si  Si821  1  0.416343  0.702041  0.597687  1
  Si  Si822  1  0.298062  0.820090  0.694220  1
  Si  Si823  1  0.416281  0.702074  0.750759  1
  Si  Si824  1  0.416316  0.820011  0.625918  1
  Si  Si825  1  0.819855  0.298200  0.654270  1
  Si  Si826  1  0.583602  0.180088  0.625960  1
  Si  Si827  1  0.701825  0.179934  0.694245  1
  Si  Si828  1  0.583588  0.297952  0.750767  1
  Si  Si829  1  0.701857  0.180064  0.654267  1
  Si  Si830  1  0.583585  0.298109  0.597741  1
  Si  Si831  1  0.583563  0.179914  0.722552  1
  Si  Si832  1  0.819829  0.298062  0.694248  1
  Si  Si833  1  0.916286  0.320163  0.603015  1
  Si  Si834  1  0.680004  0.202055  0.574700  1
  Si  Si835  1  0.798028  0.083740  0.631228  1
  Si  Si836  1  0.798022  0.320040  0.773812  1
  Si  Si837  1  0.916246  0.202017  0.717291  1
  Si  Si838  1  0.680007  0.083599  0.745525  1
  Si  Si839  1  0.798036  0.320155  0.574704  1
  Si  Si840  1  0.916292  0.202144  0.631233  1
  Si  Si841  1  0.680043  0.083766  0.602988  1
  Si  Si842  1  0.916280  0.320059  0.745505  1
  Si  Si843  1  0.680020  0.201911  0.773809  1
  Si  Si844  1  0.797990  0.083599  0.717282  1
  Si  Si845  1  0.701910  0.583755  0.597716  1
  Si  Si846  1  0.701846  0.416363  0.750775  1
  Si  Si847  1  0.701858  0.583606  0.750783  1
  Si  Si848  1  0.701858  0.416511  0.597732  1
  Si  Si849  1  0.819765  0.583595  0.722521  1
  Si  Si850  1  0.819828  0.416362  0.722532  1
  Si  Si851  1  0.819839  0.583724  0.625971  1
  Si  Si852  1  0.819823  0.416489  0.625980  1
  Si  Si853  1  0.798006  0.916357  0.717266  1
  Si  Si854  1  0.680110  0.798080  0.773801  1
  Si  Si855  1  0.583629  0.820169  0.625930  1
  Si  Si856  1  0.819796  0.702022  0.654256  1
  Si  Si857  1  0.701790  0.820051  0.694234  1
  Si  Si858  1  0.583599  0.702023  0.750783  1
  Si  Si859  1  0.701816  0.820175  0.654255  1
  Si  Si860  1  0.583663  0.702178  0.597705  1
  Si  Si861  1  0.583589  0.820007  0.722555  1
  Si  Si862  1  0.819753  0.701883  0.694232  1
  Si  Si863  1  0.916339  0.680048  0.603014  1
  Si  Si864  1  0.680186  0.798247  0.574691  1
  Si  Si865  1  0.798057  0.916496  0.631234  1
  Si  Si866  1  0.798103  0.679939  0.773800  1
  Si  Si867  1  0.916258  0.797934  0.717254  1
  Si  Si868  1  0.680046  0.916365  0.745513  1
  Si  Si869  1  0.798146  0.680076  0.574692  1
  Si  Si870  1  0.916309  0.798065  0.631234  1
  Si  Si871  1  0.680116  0.916532  0.602980  1
  Si  Si872  1  0.916282  0.679919  0.745474  1
  H  H873  1  0.332381  0.811452  0.064841  1
  H  H874  1  0.188490  0.667365  0.064839  1
  H  H875  1  0.332454  0.188629  0.064881  1
  H  H876  1  0.188535  0.332686  0.064876  1
  H  H877  1  0.667394  0.188682  0.064870  1
  H  H878  1  0.811347  0.332704  0.064869  1
  H  H879  1  0.667581  0.811506  0.064858  1
  H  H880  1  0.811468  0.667426  0.064861  1
  H  H881  1  0.332381  0.811452  0.805442  1
  H  H882  1  0.188490  0.667365  0.805440  1
  H  H883  1  0.332454  0.188629  0.805482  1
  H  H884  1  0.188535  0.332686  0.805477  1
  H  H885  1  0.667394  0.188682  0.805471  1
  H  H886  1  0.811347  0.332704  0.805470  1
  H  H887  1  0.667581  0.811506  0.805459  1
  H  H888  1  0.811468  0.667426  0.805462  1
