# generated using pymatgen
data_Si36H2O73
_symmetry_space_group_name_H-M   'P 1'
_cell_length_a   20.04667794
_cell_length_b   13.37145907
_cell_length_c   81.94065822
_cell_angle_alpha   90.00000000
_cell_angle_beta   90.00000000
_cell_angle_gamma   90.00000000
_symmetry_Int_Tables_number   1
_chemical_formula_structural   Si36H2O73
_chemical_formula_sum   'Si288 H16 O584'
_cell_volume   21964.4665899
_cell_formula_units_Z   8
loop_
 _symmetry_equiv_pos_site_id
 _symmetry_equiv_pos_as_xyz
  1  'x, y, z'
loop_
 _atom_site_type_symbol
 _atom_site_label
 _atom_site_symmetry_multiplicity
 _atom_site_fract_x
 _atom_site_fract_y
 _atom_site_fract_z
 _atom_site_occupancy
  O  O1  1  0.122120  0.090113  0.096207  1
  O  O2  1  0.098872  0.909993  0.101899  1
  O  O3  1  0.248790  0.084994  0.094880  1
  O  O4  1  0.251105  0.584996  0.171453  1
  O  O5  1  0.093445  0.915129  0.132888  1
  O  O6  1  0.192418  0.254031  0.095390  1
  O  O7  1  0.307470  0.754037  0.170942  1
  O  O8  1  0.095531  0.746086  0.119098  1
  O  O9  1  0.193562  0.144701  0.120788  1
  O  O10  1  0.306331  0.644696  0.145545  1
  O  O11  1  0.199347  0.855419  0.119377  1
  O  O12  1  0.300545  0.355424  0.146960  1
  O  O13  1  0.198704  0.441469  0.102588  1
  O  O14  1  0.301185  0.941475  0.163745  1
  O  O15  1  0.124961  0.558651  0.120630  1
  O  O16  1  0.301030  0.348057  0.093670  1
  O  O17  1  0.198860  0.848066  0.172663  1
  O  O18  1  0.088513  0.652035  0.145667  1
  O  O19  1  0.213587  0.378404  0.072004  1
  O  O20  1  0.123022  0.083149  0.144556  1
  O  O21  1  0.296486  0.916978  0.102116  1
  O  O22  1  0.203398  0.416984  0.164217  1
  O  O23  1  0.194735  0.250065  0.146674  1
  O  O24  1  0.305158  0.750063  0.119659  1
  O  O25  1  0.248857  0.076670  0.145691  1
  O  O26  1  0.251032  0.576670  0.120642  1
  O  O27  1  0.301141  0.923457  0.132902  1
  O  O28  1  0.198757  0.423452  0.133431  1
  O  O29  1  0.302815  0.987305  0.072005  1
  O  O30  1  0.093090  0.935354  0.163496  1
  O  O31  1  0.125993  0.564779  0.171545  1
  O  O32  1  0.092105  0.750063  0.171782  1
  O  O33  1  0.087933  0.980631  0.072007  1
  O  O34  1  0.598869  0.409983  0.164438  1
  O  O35  1  0.377773  0.590127  0.170127  1
  O  O36  1  0.622136  0.590097  0.170129  1
  O  O37  1  0.401025  0.410009  0.164437  1
  O  O38  1  0.593440  0.415106  0.133448  1
  O  O39  1  0.406442  0.415132  0.133447  1
  O  O40  1  0.595538  0.246068  0.147240  1
  O  O41  1  0.404361  0.246097  0.147238  1
  O  O42  1  0.624950  0.058627  0.145706  1
  O  O43  1  0.374928  0.058662  0.145705  1
  O  O44  1  0.588508  0.152025  0.120670  1
  O  O45  1  0.411380  0.152050  0.120669  1
  O  O46  1  0.499941  0.121701  0.142063  1
  O  O47  1  0.376868  0.583144  0.121776  1
  O  O48  1  0.623031  0.583116  0.121779  1
  O  O49  1  0.499947  0.512805  0.120229  1
  O  O50  1  0.406801  0.435341  0.102838  1
  O  O51  1  0.625978  0.064740  0.094794  1
  O  O52  1  0.593090  0.435321  0.102840  1
  O  O53  1  0.373902  0.064769  0.094792  1
  O  O54  1  0.499943  0.122098  0.099174  1
  O  O55  1  0.611001  0.377971  0.072005  1
  O  O56  1  0.407786  0.250052  0.094551  1
  O  O57  1  0.592111  0.250031  0.094553  1
  O  O58  1  0.499952  0.519465  0.172804  1
  O  O59  1  0.388895  0.377994  0.072003  1
  O  O60  1  0.901021  0.909973  0.101901  1
  O  O61  1  0.877760  0.090085  0.096209  1
  O  O62  1  0.906444  0.915109  0.132890  1
  O  O63  1  0.748805  0.584968  0.171457  1
  O  O64  1  0.751090  0.084961  0.094882  1
  O  O65  1  0.904354  0.746067  0.119100  1
  O  O66  1  0.692434  0.754008  0.170944  1
  O  O67  1  0.807465  0.253998  0.095393  1
  O  O68  1  0.699347  0.355415  0.146960  1
  O  O69  1  0.800541  0.855406  0.119379  1
  O  O70  1  0.693579  0.644659  0.145547  1
  O  O71  1  0.806316  0.144662  0.120791  1
  O  O72  1  0.874939  0.558628  0.120632  1
  O  O73  1  0.698699  0.941447  0.163749  1
  O  O74  1  0.801198  0.441437  0.102590  1
  O  O75  1  0.911385  0.652022  0.145669  1
  O  O76  1  0.801035  0.848054  0.172665  1
  O  O77  1  0.698863  0.348044  0.093673  1
  O  O78  1  0.000000  0.621694  0.124275  1
  O  O79  1  0.796499  0.416953  0.164219  1
  O  O80  1  0.703392  0.916949  0.102120  1
  O  O81  1  0.876856  0.083121  0.144559  1
  O  O82  1  0.805148  0.250036  0.146676  1
  O  O83  1  0.694738  0.750033  0.119663  1
  O  O84  1  0.801144  0.423428  0.133433  1
  O  O85  1  0.698745  0.923424  0.132906  1
  O  O86  1  0.748868  0.576640  0.120643  1
  O  O87  1  0.751020  0.076645  0.145694  1
  O  O88  1  0.873916  0.564745  0.171545  1
  O  O89  1  0.906808  0.935329  0.163498  1
  O  O90  1  0.907785  0.750038  0.171785  1
  O  O91  1  0.911958  0.980607  0.072008  1
  O  O92  1  0.786309  0.378375  0.072006  1
  O  O93  1  0.697064  0.987263  0.072007  1
  O  O94  1  0.000000  0.012812  0.146106  1
  O  O95  1  -0.000000  0.622101  0.167164  1
  O  O96  1  0.000000  0.019446  0.093533  1
  O  O97  1  0.098877  0.909977  0.286765  1
  O  O98  1  0.122120  0.090099  0.292454  1
  O  O99  1  0.093455  0.915111  0.255775  1
  O  O100  1  0.248791  0.084981  0.293778  1
  O  O101  1  0.251107  0.584983  0.217206  1
  O  O102  1  0.095541  0.746070  0.269565  1
  O  O103  1  0.192419  0.254017  0.293269  1
  O  O104  1  0.307474  0.754025  0.217714  1
  O  O105  1  0.199355  0.855403  0.269286  1
  O  O106  1  0.300553  0.355391  0.241698  1
  O  O107  1  0.193559  0.144684  0.267871  1
  O  O108  1  0.306335  0.644699  0.243113  1
  O  O109  1  0.124973  0.558637  0.268028  1
  O  O110  1  0.198711  0.441453  0.286069  1
  O  O111  1  0.301190  0.941460  0.224914  1
  O  O112  1  0.088518  0.652037  0.242993  1
  O  O113  1  0.301033  0.348040  0.294987  1
  O  O114  1  0.198864  0.848054  0.215997  1
  O  O115  1  0.286307  0.878410  0.194329  1
  O  O116  1  0.296500  0.916970  0.286543  1
  O  O117  1  0.203411  0.416961  0.224440  1
  O  O118  1  0.123027  0.083124  0.244103  1
  O  O119  1  0.305167  0.750050  0.269000  1
  O  O120  1  0.194736  0.250045  0.241984  1
  O  O121  1  0.301143  0.923440  0.255757  1
  O  O122  1  0.198767  0.423439  0.255226  1
  O  O123  1  0.248864  0.076656  0.242969  1
  O  O124  1  0.251044  0.576654  0.268015  1
  O  O125  1  0.197089  0.487302  0.194329  1
  O  O126  1  0.125996  0.564753  0.217117  1
  O  O127  1  0.093089  0.935319  0.225166  1
  O  O128  1  0.110998  0.877998  0.194331  1
  O  O129  1  0.092113  0.750037  0.216876  1
  O  O130  1  0.622137  0.590077  0.218533  1
  O  O131  1  0.401024  0.409988  0.224219  1
  O  O132  1  0.598873  0.409960  0.224221  1
  O  O133  1  0.377777  0.590113  0.218532  1
  O  O134  1  0.406450  0.415115  0.255209  1
  O  O135  1  0.593451  0.415085  0.255211  1
  O  O136  1  0.404373  0.246075  0.241419  1
  O  O137  1  0.595547  0.246046  0.241420  1
  O  O138  1  0.374935  0.058641  0.242955  1
  O  O139  1  0.624960  0.058605  0.242958  1
  O  O140  1  0.411386  0.152036  0.267990  1
  O  O141  1  0.588513  0.152017  0.267991  1
  O  O142  1  0.499951  0.121678  0.246597  1
  O  O143  1  0.623040  0.583092  0.266882  1
  O  O144  1  0.376879  0.583133  0.266879  1
  O  O145  1  0.499955  0.512783  0.268428  1
  O  O146  1  0.593091  0.435296  0.285820  1
  O  O147  1  0.373904  0.064769  0.293867  1
  O  O148  1  0.406800  0.435333  0.285818  1
  O  O149  1  0.625980  0.064722  0.293868  1
  O  O150  1  0.499946  0.122086  0.289486  1
  O  O151  1  0.592117  0.250013  0.294110  1
  O  O152  1  0.407793  0.250049  0.294106  1
  O  O153  1  0.499954  0.519444  0.215856  1
  O  O154  1  0.587938  0.480623  0.194330  1
  O  O155  1  0.411963  0.480650  0.194329  1
  O  O156  1  0.877762  0.090066  0.292455  1
  O  O157  1  0.901024  0.909948  0.286766  1
  O  O158  1  0.748807  0.584947  0.217207  1
  O  O159  1  0.751091  0.084945  0.293782  1
  O  O160  1  0.906452  0.915085  0.255777  1
  O  O161  1  0.692435  0.753985  0.217718  1
  O  O162  1  0.807467  0.253980  0.293272  1
  O  O163  1  0.904360  0.746040  0.269566  1
  O  O164  1  0.693581  0.644651  0.243116  1
  O  O165  1  0.806321  0.144655  0.267874  1
  O  O166  1  0.699355  0.355392  0.241700  1
  O  O167  1  0.800548  0.855381  0.269287  1
  O  O168  1  0.698705  0.941420  0.224917  1
  O  O169  1  0.801205  0.441416  0.286072  1
  O  O170  1  0.874949  0.558600  0.268030  1
  O  O171  1  0.801037  0.848031  0.215999  1
  O  O172  1  0.698866  0.348033  0.294989  1
  O  O173  1  0.911392  0.652010  0.242995  1
  O  O174  1  0.000000  0.621677  0.264388  1
  O  O175  1  0.876866  0.083099  0.244107  1
  O  O176  1  0.796510  0.416932  0.224443  1
  O  O177  1  0.703397  0.916927  0.286546  1
  O  O178  1  0.694745  0.750009  0.269002  1
  O  O179  1  0.805156  0.250012  0.241987  1
  O  O180  1  0.748877  0.576619  0.268019  1
  O  O181  1  0.751030  0.076619  0.242971  1
  O  O182  1  0.801149  0.423404  0.255228  1
  O  O183  1  0.698753  0.923403  0.255760  1
  O  O184  1  0.906807  0.935307  0.225168  1
  O  O185  1  0.873919  0.564732  0.217118  1
  O  O186  1  0.000000  0.622084  0.221498  1
  O  O187  1  0.907790  0.750023  0.216879  1
  O  O188  1  0.000000  0.019428  0.295131  1
  O  O189  1  0.713589  0.878374  0.194332  1
  O  O190  1  0.802828  0.487266  0.194331  1
  O  O191  1  0.888900  0.877978  0.194333  1
  O  O192  1  -0.000000  0.012783  0.242559  1
  O  O193  1  0.122120  0.090113  0.340857  1
  O  O194  1  0.098872  0.909993  0.346548  1
  O  O195  1  0.248790  0.084994  0.339530  1
  O  O196  1  0.251105  0.584996  0.416103  1
  O  O197  1  0.093445  0.915129  0.377538  1
  O  O198  1  0.192418  0.254031  0.340040  1
  O  O199  1  0.307470  0.754037  0.415592  1
  O  O200  1  0.095531  0.746086  0.363748  1
  O  O201  1  0.193562  0.144701  0.365438  1
  O  O202  1  0.306331  0.644696  0.390194  1
  O  O203  1  0.199347  0.855419  0.364027  1
  O  O204  1  0.300545  0.355424  0.391609  1
  O  O205  1  0.198704  0.441469  0.347237  1
  O  O206  1  0.301185  0.941475  0.408395  1
  O  O207  1  0.124961  0.558651  0.365280  1
  O  O208  1  0.301030  0.348057  0.338320  1
  O  O209  1  0.198860  0.848066  0.417313  1
  O  O210  1  0.088513  0.652035  0.390317  1
  O  O211  1  0.213587  0.378404  0.316653  1
  O  O212  1  0.123022  0.083149  0.389206  1
  O  O213  1  0.296486  0.916978  0.346766  1
  O  O214  1  0.203398  0.416984  0.408867  1
  O  O215  1  0.194735  0.250065  0.391324  1
  O  O216  1  0.305158  0.750063  0.364309  1
  O  O217  1  0.248857  0.076670  0.390341  1
  O  O218  1  0.251032  0.576670  0.365291  1
  O  O219  1  0.301141  0.923457  0.377552  1
  O  O220  1  0.198757  0.423452  0.378081  1
  O  O221  1  0.302815  0.987305  0.316655  1
  O  O222  1  0.093090  0.935354  0.408146  1
  O  O223  1  0.125993  0.564779  0.416195  1
  O  O224  1  0.092105  0.750063  0.416432  1
  O  O225  1  0.087933  0.980631  0.316656  1
  O  O226  1  0.598869  0.409983  0.409088  1
  O  O227  1  0.377773  0.590127  0.414777  1
  O  O228  1  0.622136  0.590097  0.414779  1
  O  O229  1  0.401025  0.410009  0.409087  1
  O  O230  1  0.593440  0.415106  0.378098  1
  O  O231  1  0.406442  0.415132  0.378096  1
  O  O232  1  0.595538  0.246068  0.391890  1
  O  O233  1  0.404361  0.246097  0.391888  1
  O  O234  1  0.624950  0.058627  0.390356  1
  O  O235  1  0.374928  0.058662  0.390354  1
  O  O236  1  0.588508  0.152025  0.365320  1
  O  O237  1  0.411380  0.152050  0.365318  1
  O  O238  1  0.499941  0.121701  0.386712  1
  O  O239  1  0.376868  0.583144  0.366426  1
  O  O240  1  0.623031  0.583116  0.366429  1
  O  O241  1  0.499947  0.512805  0.364879  1
  O  O242  1  0.406801  0.435341  0.347488  1
  O  O243  1  0.625978  0.064740  0.339443  1
  O  O244  1  0.593090  0.435321  0.347490  1
  O  O245  1  0.373902  0.064769  0.339442  1
  O  O246  1  0.499943  0.122098  0.343823  1
  O  O247  1  0.611001  0.377971  0.316655  1
  O  O248  1  0.407786  0.250052  0.339201  1
  O  O249  1  0.592111  0.250031  0.339203  1
  O  O250  1  0.499952  0.519465  0.417454  1
  O  O251  1  0.388895  0.377994  0.316653  1
  O  O252  1  0.901021  0.909973  0.346550  1
  O  O253  1  0.877760  0.090085  0.340858  1
  O  O254  1  0.906444  0.915109  0.377540  1
  O  O255  1  0.748805  0.584968  0.416107  1
  O  O256  1  0.751090  0.084961  0.339531  1
  O  O257  1  0.904354  0.746067  0.363749  1
  O  O258  1  0.692434  0.754008  0.415594  1
  O  O259  1  0.807465  0.253998  0.340043  1
  O  O260  1  0.699347  0.355415  0.391610  1
  O  O261  1  0.800541  0.855406  0.364029  1
  O  O262  1  0.693579  0.644659  0.390197  1
  O  O263  1  0.806316  0.144662  0.365440  1
  O  O264  1  0.874939  0.558628  0.365282  1
  O  O265  1  0.698699  0.941447  0.408399  1
  O  O266  1  0.801198  0.441437  0.347240  1
  O  O267  1  0.911385  0.652022  0.390319  1
  O  O268  1  0.801035  0.848054  0.417315  1
  O  O269  1  0.698863  0.348044  0.338323  1
  O  O270  1  -0.000000  0.621694  0.368924  1
  O  O271  1  0.796499  0.416953  0.408868  1
  O  O272  1  0.703392  0.916949  0.346769  1
  O  O273  1  0.876856  0.083121  0.389209  1
  O  O274  1  0.805148  0.250036  0.391325  1
  O  O275  1  0.694738  0.750033  0.364313  1
  O  O276  1  0.801144  0.423428  0.378083  1
  O  O277  1  0.698745  0.923424  0.377555  1
  O  O278  1  0.748868  0.576640  0.365292  1
  O  O279  1  0.751020  0.076645  0.390344  1
  O  O280  1  0.873916  0.564745  0.416195  1
  O  O281  1  0.906808  0.935329  0.408148  1
  O  O282  1  0.907785  0.750038  0.416435  1
  O  O283  1  0.911958  0.980607  0.316658  1
  O  O284  1  0.786309  0.378375  0.316656  1
  O  O285  1  0.697064  0.987263  0.316657  1
  O  O286  1  0.000000  0.012812  0.390755  1
  O  O287  1  0.000000  0.622101  0.411814  1
  O  O288  1  -0.000000  0.019446  0.338182  1
  O  O289  1  0.098877  0.909977  0.531415  1
  O  O290  1  0.122120  0.090099  0.537103  1
  O  O291  1  0.093455  0.915111  0.500425  1
  O  O292  1  0.248791  0.084981  0.538428  1
  O  O293  1  0.251107  0.584983  0.461855  1
  O  O294  1  0.095541  0.746070  0.514215  1
  O  O295  1  0.192419  0.254017  0.537918  1
  O  O296  1  0.307474  0.754025  0.462364  1
  O  O297  1  0.199355  0.855403  0.513935  1
  O  O298  1  0.300553  0.355391  0.486348  1
  O  O299  1  0.193559  0.144684  0.512520  1
  O  O300  1  0.306335  0.644699  0.487763  1
  O  O301  1  0.124973  0.558637  0.512677  1
  O  O302  1  0.198711  0.441453  0.530718  1
  O  O303  1  0.301190  0.941460  0.469564  1
  O  O304  1  0.088518  0.652037  0.487643  1
  O  O305  1  0.301033  0.348040  0.539637  1
  O  O306  1  0.198864  0.848054  0.460646  1
  O  O307  1  0.286307  0.878410  0.438979  1
  O  O308  1  0.296500  0.916970  0.531193  1
  O  O309  1  0.203411  0.416961  0.469090  1
  O  O310  1  0.123027  0.083124  0.488752  1
  O  O311  1  0.305167  0.750050  0.513650  1
  O  O312  1  0.194736  0.250045  0.486634  1
  O  O313  1  0.301143  0.923440  0.500407  1
  O  O314  1  0.198767  0.423439  0.499875  1
  O  O315  1  0.248864  0.076656  0.487619  1
  O  O316  1  0.251044  0.576654  0.512665  1
  O  O317  1  0.197089  0.487302  0.438979  1
  O  O318  1  0.125996  0.564753  0.461767  1
  O  O319  1  0.093089  0.935319  0.469816  1
  O  O320  1  0.110998  0.877998  0.438980  1
  O  O321  1  0.092113  0.750037  0.461526  1
  O  O322  1  0.622137  0.590077  0.463183  1
  O  O323  1  0.401024  0.409988  0.468869  1
  O  O324  1  0.598873  0.409960  0.468871  1
  O  O325  1  0.377777  0.590113  0.463181  1
  O  O326  1  0.406450  0.415115  0.499859  1
  O  O327  1  0.593451  0.415085  0.499860  1
  O  O328  1  0.404373  0.246075  0.486068  1
  O  O329  1  0.595547  0.246046  0.486070  1
  O  O330  1  0.374935  0.058641  0.487604  1
  O  O331  1  0.624960  0.058605  0.487607  1
  O  O332  1  0.411386  0.152036  0.512639  1
  O  O333  1  0.588513  0.152017  0.512641  1
  O  O334  1  0.499951  0.121678  0.491247  1
  O  O335  1  0.623040  0.583092  0.511532  1
  O  O336  1  0.376879  0.583133  0.511529  1
  O  O337  1  0.499955  0.512783  0.513078  1
  O  O338  1  0.593091  0.435296  0.530469  1
  O  O339  1  0.373904  0.064769  0.538517  1
  O  O340  1  0.406800  0.435333  0.530468  1
  O  O341  1  0.625980  0.064722  0.538518  1
  O  O342  1  0.499946  0.122086  0.534136  1
  O  O343  1  0.592117  0.250013  0.538759  1
  O  O344  1  0.407793  0.250049  0.538756  1
  O  O345  1  0.499954  0.519444  0.460505  1
  O  O346  1  0.587938  0.480623  0.438980  1
  O  O347  1  0.411963  0.480650  0.438978  1
  O  O348  1  0.877762  0.090066  0.537105  1
  O  O349  1  0.901024  0.909948  0.531416  1
  O  O350  1  0.748807  0.584947  0.461857  1
  O  O351  1  0.751091  0.084945  0.538431  1
  O  O352  1  0.906452  0.915085  0.500427  1
  O  O353  1  0.692435  0.753985  0.462367  1
  O  O354  1  0.807467  0.253980  0.537922  1
  O  O355  1  0.904360  0.746040  0.514216  1
  O  O356  1  0.693581  0.644651  0.487765  1
  O  O357  1  0.806321  0.144655  0.512524  1
  O  O358  1  0.699355  0.355392  0.486349  1
  O  O359  1  0.800548  0.855381  0.513937  1
  O  O360  1  0.698705  0.941420  0.469566  1
  O  O361  1  0.801205  0.441416  0.530721  1
  O  O362  1  0.874949  0.558600  0.512679  1
  O  O363  1  0.801037  0.848031  0.460648  1
  O  O364  1  0.698866  0.348033  0.539638  1
  O  O365  1  0.911392  0.652010  0.487645  1
  O  O366  1  0.000000  0.621677  0.509037  1
  O  O367  1  0.876866  0.083099  0.488757  1
  O  O368  1  0.796510  0.416932  0.469093  1
  O  O369  1  0.703397  0.916927  0.531195  1
  O  O370  1  0.694745  0.750009  0.513652  1
  O  O371  1  0.805156  0.250012  0.486636  1
  O  O372  1  0.748877  0.576619  0.512668  1
  O  O373  1  0.751030  0.076619  0.487620  1
  O  O374  1  0.801149  0.423404  0.499878  1
  O  O375  1  0.698753  0.923403  0.500410  1
  O  O376  1  0.906807  0.935307  0.469818  1
  O  O377  1  0.873919  0.564732  0.461768  1
  O  O378  1  0.000000  0.622084  0.466148  1
  O  O379  1  0.907790  0.750023  0.461528  1
  O  O380  1  0.000000  0.019428  0.539780  1
  O  O381  1  0.713589  0.878374  0.438982  1
  O  O382  1  0.802828  0.487266  0.438981  1
  O  O383  1  0.888900  0.877978  0.438983  1
  O  O384  1  0.000000  0.012783  0.487208  1
  O  O385  1  0.122120  0.090113  0.585507  1
  O  O386  1  0.098872  0.909993  0.591198  1
  O  O387  1  0.248790  0.084994  0.584179  1
  O  O388  1  0.251105  0.584996  0.660753  1
  O  O389  1  0.093445  0.915129  0.622188  1
  O  O390  1  0.192418  0.254031  0.584689  1
  O  O391  1  0.307470  0.754037  0.660242  1
  O  O392  1  0.095531  0.746086  0.608398  1
  O  O393  1  0.193562  0.144701  0.610088  1
  O  O394  1  0.306331  0.644696  0.634844  1
  O  O395  1  0.199347  0.855419  0.608677  1
  O  O396  1  0.300545  0.355424  0.636259  1
  O  O397  1  0.198704  0.441469  0.591887  1
  O  O398  1  0.301185  0.941475  0.653045  1
  O  O399  1  0.124961  0.558651  0.609930  1
  O  O400  1  0.301030  0.348057  0.582970  1
  O  O401  1  0.198860  0.848066  0.661962  1
  O  O402  1  0.088513  0.652035  0.634967  1
  O  O403  1  0.213587  0.378404  0.561303  1
  O  O404  1  0.123022  0.083149  0.633856  1
  O  O405  1  0.296486  0.916978  0.591416  1
  O  O406  1  0.203398  0.416984  0.653516  1
  O  O407  1  0.194735  0.250065  0.635974  1
  O  O408  1  0.305158  0.750063  0.608959  1
  O  O409  1  0.248857  0.076670  0.634990  1
  O  O410  1  0.251032  0.576670  0.609941  1
  O  O411  1  0.301141  0.923457  0.622201  1
  O  O412  1  0.198757  0.423452  0.622730  1
  O  O413  1  0.302815  0.987305  0.561304  1
  O  O414  1  0.093090  0.935354  0.652796  1
  O  O415  1  0.125993  0.564779  0.660845  1
  O  O416  1  0.092105  0.750063  0.661082  1
  O  O417  1  0.087933  0.980631  0.561306  1
  O  O418  1  0.598869  0.409983  0.653738  1
  O  O419  1  0.377773  0.590127  0.659426  1
  O  O420  1  0.622136  0.590097  0.659429  1
  O  O421  1  0.401025  0.410009  0.653736  1
  O  O422  1  0.593440  0.415106  0.622748  1
  O  O423  1  0.406442  0.415132  0.622746  1
  O  O424  1  0.595538  0.246068  0.636539  1
  O  O425  1  0.404361  0.246097  0.636538  1
  O  O426  1  0.624950  0.058627  0.635006  1
  O  O427  1  0.374928  0.058662  0.635004  1
  O  O428  1  0.588508  0.152025  0.609969  1
  O  O429  1  0.411380  0.152050  0.609968  1
  O  O430  1  0.499941  0.121701  0.631362  1
  O  O431  1  0.376868  0.583144  0.611075  1
  O  O432  1  0.623031  0.583116  0.611079  1
  O  O433  1  0.499947  0.512805  0.609529  1
  O  O434  1  0.406801  0.435341  0.592137  1
  O  O435  1  0.625978  0.064740  0.584093  1
  O  O436  1  0.593090  0.435321  0.592139  1
  O  O437  1  0.373902  0.064769  0.584092  1
  O  O438  1  0.499943  0.122098  0.588473  1
  O  O439  1  0.611001  0.377971  0.561305  1
  O  O440  1  0.407786  0.250052  0.583850  1
  O  O441  1  0.592111  0.250031  0.583852  1
  O  O442  1  0.499952  0.519465  0.662104  1
  O  O443  1  0.388895  0.377994  0.561303  1
  O  O444  1  0.901021  0.909973  0.591200  1
  O  O445  1  0.877760  0.090085  0.585508  1
  O  O446  1  0.906444  0.915109  0.622189  1
  O  O447  1  0.748805  0.584968  0.660756  1
  O  O448  1  0.751090  0.084961  0.584181  1
  O  O449  1  0.904354  0.746067  0.608399  1
  O  O450  1  0.692434  0.754008  0.660244  1
  O  O451  1  0.807465  0.253998  0.584692  1
  O  O452  1  0.699347  0.355415  0.636259  1
  O  O453  1  0.800541  0.855406  0.608678  1
  O  O454  1  0.693579  0.644659  0.634846  1
  O  O455  1  0.806316  0.144662  0.610090  1
  O  O456  1  0.874939  0.558628  0.609932  1
  O  O457  1  0.698699  0.941447  0.653048  1
  O  O458  1  0.801198  0.441437  0.591889  1
  O  O459  1  0.911385  0.652022  0.634968  1
  O  O460  1  0.801035  0.848054  0.661965  1
  O  O461  1  0.698863  0.348044  0.582973  1
  O  O462  1  0.000000  0.621694  0.613574  1
  O  O463  1  0.796499  0.416953  0.653518  1
  O  O464  1  0.703392  0.916949  0.591419  1
  O  O465  1  0.876856  0.083121  0.633859  1
  O  O466  1  0.805148  0.250036  0.635975  1
  O  O467  1  0.694738  0.750033  0.608962  1
  O  O468  1  0.801144  0.423428  0.622733  1
  O  O469  1  0.698745  0.923424  0.622205  1
  O  O470  1  0.748868  0.576640  0.609942  1
  O  O471  1  0.751020  0.076645  0.634993  1
  O  O472  1  0.873916  0.564745  0.660845  1
  O  O473  1  0.906808  0.935329  0.652798  1
  O  O474  1  0.907785  0.750038  0.661084  1
  O  O475  1  0.911958  0.980607  0.561307  1
  O  O476  1  0.786309  0.378375  0.561306  1
  O  O477  1  0.697064  0.987263  0.561307  1
  O  O478  1  0.000000  0.012812  0.635405  1
  O  O479  1  0.000000  0.622101  0.656463  1
  O  O480  1  -0.000000  0.019446  0.582832  1
  O  O481  1  0.098877  0.909977  0.776064  1
  O  O482  1  0.122120  0.090099  0.781753  1
  O  O483  1  0.093455  0.915111  0.745075  1
  O  O484  1  0.248791  0.084981  0.783078  1
  O  O485  1  0.251107  0.584983  0.706505  1
  O  O486  1  0.095541  0.746070  0.758864  1
  O  O487  1  0.192419  0.254017  0.782568  1
  O  O488  1  0.307474  0.754025  0.707014  1
  O  O489  1  0.199355  0.855403  0.758585  1
  O  O490  1  0.300553  0.355391  0.730998  1
  O  O491  1  0.193559  0.144684  0.757170  1
  O  O492  1  0.306335  0.644699  0.732412  1
  O  O493  1  0.124973  0.558637  0.757327  1
  O  O494  1  0.198711  0.441453  0.775368  1
  O  O495  1  0.301190  0.941460  0.714213  1
  O  O496  1  0.088518  0.652037  0.732293  1
  O  O497  1  0.301033  0.348040  0.784286  1
  O  O498  1  0.198864  0.848054  0.705296  1
  O  O499  1  0.286307  0.878410  0.683629  1
  O  O500  1  0.296500  0.916970  0.775842  1
  O  O501  1  0.203411  0.416961  0.713740  1
  O  O502  1  0.123027  0.083124  0.733402  1
  O  O503  1  0.305167  0.750050  0.758299  1
  O  O504  1  0.194736  0.250045  0.731284  1
  O  O505  1  0.301143  0.923440  0.745057  1
  O  O506  1  0.198767  0.423439  0.744525  1
  O  O507  1  0.248864  0.076656  0.732268  1
  O  O508  1  0.251044  0.576654  0.757315  1
  O  O509  1  0.197089  0.487302  0.683629  1
  O  O510  1  0.125996  0.564753  0.706417  1
  O  O511  1  0.093089  0.935319  0.714466  1
  O  O512  1  0.110998  0.877998  0.683630  1
  O  O513  1  0.092113  0.750037  0.706175  1
  O  O514  1  0.622137  0.590077  0.707833  1
  O  O515  1  0.401024  0.409988  0.713519  1
  O  O516  1  0.598873  0.409960  0.713521  1
  O  O517  1  0.377777  0.590113  0.707831  1
  O  O518  1  0.406450  0.415115  0.744509  1
  O  O519  1  0.593451  0.415085  0.744510  1
  O  O520  1  0.404373  0.246075  0.730718  1
  O  O521  1  0.595547  0.246046  0.730720  1
  O  O522  1  0.374935  0.058641  0.732254  1
  O  O523  1  0.624960  0.058605  0.732257  1
  O  O524  1  0.411386  0.152036  0.757289  1
  O  O525  1  0.588513  0.152017  0.757291  1
  O  O526  1  0.499951  0.121678  0.735897  1
  O  O527  1  0.623040  0.583092  0.756182  1
  O  O528  1  0.376879  0.583133  0.756179  1
  O  O529  1  0.499955  0.512783  0.757728  1
  O  O530  1  0.593091  0.435296  0.775119  1
  O  O531  1  0.373904  0.064769  0.783167  1
  O  O532  1  0.406800  0.435333  0.775117  1
  O  O533  1  0.625980  0.064722  0.783167  1
  O  O534  1  0.499946  0.122086  0.778786  1
  O  O535  1  0.592117  0.250013  0.783409  1
  O  O536  1  0.407793  0.250049  0.783406  1
  O  O537  1  0.499954  0.519444  0.705155  1
  O  O538  1  0.587938  0.480623  0.683629  1
  O  O539  1  0.411963  0.480650  0.683628  1
  O  O540  1  0.877762  0.090066  0.781755  1
  O  O541  1  0.901024  0.909948  0.776066  1
  O  O542  1  0.748807  0.584947  0.706507  1
  O  O543  1  0.751091  0.084945  0.783081  1
  O  O544  1  0.906452  0.915085  0.745076  1
  O  O545  1  0.692435  0.753985  0.707017  1
  O  O546  1  0.807467  0.253980  0.782572  1
  O  O547  1  0.904360  0.746040  0.758865  1
  O  O548  1  0.693581  0.644651  0.732415  1
  O  O549  1  0.806321  0.144655  0.757173  1
  O  O550  1  0.699355  0.355392  0.730999  1
  O  O551  1  0.800548  0.855381  0.758587  1
  O  O552  1  0.698705  0.941420  0.714216  1
  O  O553  1  0.801205  0.441416  0.775371  1
  O  O554  1  0.874949  0.558600  0.757329  1
  O  O555  1  0.801037  0.848031  0.705298  1
  O  O556  1  0.698866  0.348033  0.784288  1
  O  O557  1  0.911392  0.652010  0.732294  1
  O  O558  1  0.000000  0.621677  0.753687  1
  O  O559  1  0.876866  0.083099  0.733407  1
  O  O560  1  0.796510  0.416932  0.713742  1
  O  O561  1  0.703397  0.916927  0.775845  1
  O  O562  1  0.694745  0.750009  0.758301  1
  O  O563  1  0.805156  0.250012  0.731286  1
  O  O564  1  0.748877  0.576619  0.757318  1
  O  O565  1  0.751030  0.076619  0.732270  1
  O  O566  1  0.801149  0.423404  0.744528  1
  O  O567  1  0.698753  0.923403  0.745059  1
  O  O568  1  0.906807  0.935307  0.714468  1
  O  O569  1  0.873919  0.564732  0.706417  1
  O  O570  1  0.000000  0.622084  0.710798  1
  O  O571  1  0.907790  0.750023  0.706178  1
  O  O572  1  0.000000  0.019428  0.784430  1
  O  O573  1  0.713589  0.878374  0.683632  1
  O  O574  1  0.802828  0.487266  0.683631  1
  O  O575  1  0.888900  0.877978  0.683632  1
  O  O576  1  0.000000  0.012783  0.731858  1
  O  O577  1  0.213587  0.378404  0.805953  1
  O  O578  1  0.302815  0.987305  0.805954  1
  O  O579  1  0.087933  0.980631  0.805956  1
  O  O580  1  0.611001  0.377971  0.805954  1
  O  O581  1  0.388895  0.377994  0.805952  1
  O  O582  1  0.911958  0.980607  0.805957  1
  O  O583  1  0.786309  0.378375  0.805955  1
  O  O584  1  0.697064  0.987263  0.805956  1
  Si  Si585  1  0.307406  -0.000000  0.147226  1
  Si  Si586  1  0.192485  0.500060  0.119107  1
  Si  Si587  1  0.187853  0.144015  0.101827  1
  Si  Si588  1  0.312039  0.644020  0.164506  1
  Si  Si589  1  0.121840  0.856102  0.117981  1
  Si  Si590  1  0.223954  0.357553  0.090724  1
  Si  Si591  1  0.275936  0.857559  0.175609  1
  Si  Si592  1  0.076468  0.642555  0.126811  1
  Si  Si593  1  0.188392  0.140792  0.139759  1
  Si  Si594  1  0.311498  0.640788  0.126574  1
  Si  Si595  1  0.276888  0.859335  0.118110  1
  Si  Si596  1  0.223003  0.359337  0.148224  1
  Si  Si597  1  0.076624  0.989579  0.146999  1
  Si  Si598  1  0.306467  0.010545  0.090765  1
  Si  Si599  1  0.193428  0.510548  0.175570  1
  Si  Si600  1  0.121848  0.855556  0.175596  1
  Si  Si601  1  0.076526  0.644559  0.164508  1
  Si  Si602  1  0.076698  0.000000  0.090784  1
  Si  Si603  1  0.423197  0.500064  0.175551  1
  Si  Si604  1  0.576705  0.500042  0.175553  1
  Si  Si605  1  0.621840  0.356088  0.148356  1
  Si  Si606  1  0.378051  0.356113  0.148355  1
  Si  Si607  1  0.576463  0.142543  0.139527  1
  Si  Si608  1  0.423423  0.142566  0.139525  1
  Si  Si609  1  0.423266  0.489573  0.119335  1
  Si  Si610  1  0.576627  0.489554  0.119337  1
  Si  Si611  1  0.378043  0.355547  0.090738  1
  Si  Si612  1  0.576520  0.144538  0.101829  1
  Si  Si613  1  0.621851  0.355528  0.090740  1
  Si  Si614  1  0.423367  0.144556  0.101828  1
  Si  Si615  1  0.807417  0.500034  0.119109  1
  Si  Si616  1  0.692473  -0.000000  0.147229  1
  Si  Si617  1  0.923190  0.000000  0.090785  1
  Si  Si618  1  0.878047  0.856084  0.117983  1
  Si  Si619  1  0.687871  0.643989  0.164509  1
  Si  Si620  1  0.812026  0.143980  0.101829  1
  Si  Si621  1  0.923428  0.642540  0.126812  1
  Si  Si622  1  0.723959  0.857533  0.175612  1
  Si  Si623  1  0.775939  0.357526  0.090727  1
  Si  Si624  1  0.776889  0.359313  0.148226  1
  Si  Si625  1  0.722999  0.859309  0.118113  1
  Si  Si626  1  0.688402  0.640756  0.126576  1
  Si  Si627  1  0.811486  0.140761  0.139761  1
  Si  Si628  1  0.806482  0.510515  0.175572  1
  Si  Si629  1  0.693412  0.010511  0.090767  1
  Si  Si630  1  0.923263  0.989561  0.147000  1
  Si  Si631  1  0.923374  0.644541  0.164510  1
  Si  Si632  1  0.878048  0.855535  0.175598  1
  Si  Si633  1  0.307411  0.000000  0.241434  1
  Si  Si634  1  0.192496  0.500046  0.269549  1
  Si  Si635  1  0.121850  0.856086  0.270683  1
  Si  Si636  1  0.187852  0.143999  0.286832  1
  Si  Si637  1  0.312043  0.644010  0.224151  1
  Si  Si638  1  0.076476  0.642544  0.261850  1
  Si  Si639  1  0.223957  0.357540  0.297933  1
  Si  Si640  1  0.275939  0.857549  0.213050  1
  Si  Si641  1  0.276898  0.859321  0.270551  1
  Si  Si642  1  0.223011  0.359314  0.240433  1
  Si  Si643  1  0.188395  0.140773  0.248900  1
  Si  Si644  1  0.311508  0.640779  0.262084  1
  Si  Si645  1  0.306472  0.010540  0.297895  1
  Si  Si646  1  0.193432  0.510533  0.213089  1
  Si  Si647  1  0.076629  0.989551  0.241664  1
  Si  Si648  1  0.076531  0.644541  0.224153  1
  Si  Si649  1  0.121851  0.855537  0.213064  1
  Si  Si650  1  0.076700  0.000000  0.297878  1
  Si  Si651  1  0.423199  0.500049  0.213107  1
  Si  Si652  1  0.378058  0.356088  0.240302  1
  Si  Si653  1  0.621849  0.356066  0.240303  1
  Si  Si654  1  0.423432  0.142546  0.249133  1
  Si  Si655  1  0.576472  0.142525  0.249135  1
  Si  Si656  1  0.576634  0.489530  0.269322  1
  Si  Si657  1  0.423272  0.489557  0.269321  1
  Si  Si658  1  0.621854  0.355514  0.297921  1
  Si  Si659  1  0.423372  0.144549  0.286831  1
  Si  Si660  1  0.378045  0.355541  0.297919  1
  Si  Si661  1  0.576524  0.144523  0.286832  1
  Si  Si662  1  0.576707  0.500025  0.213108  1
  Si  Si663  1  0.807425  0.500010  0.269552  1
  Si  Si664  1  0.692483  0.000000  0.241436  1
  Si  Si665  1  0.687872  0.643968  0.224154  1
  Si  Si666  1  0.812029  0.143964  0.286836  1
  Si  Si667  1  0.878054  0.856057  0.270684  1
  Si  Si668  1  0.723961  0.857514  0.213052  1
  Si  Si669  1  0.775943  0.357513  0.297936  1
  Si  Si670  1  0.923436  0.642519  0.261851  1
  Si  Si671  1  0.688410  0.640736  0.262086  1
  Si  Si672  1  0.811494  0.140742  0.248903  1
  Si  Si673  1  0.776898  0.359289  0.240435  1
  Si  Si674  1  0.723005  0.859285  0.270553  1
  Si  Si675  1  0.923268  0.989534  0.241666  1
  Si  Si676  1  0.806486  0.510502  0.213091  1
  Si  Si677  1  0.693413  0.010496  0.297897  1
  Si  Si678  1  0.878049  0.855520  0.213067  1
  Si  Si679  1  0.923379  0.644526  0.224154  1
  Si  Si680  1  0.923191  0.000000  0.297880  1
  Si  Si681  1  0.307406  0.000000  0.391875  1
  Si  Si682  1  0.192485  0.500060  0.363757  1
  Si  Si683  1  0.187853  0.144015  0.346476  1
  Si  Si684  1  0.312039  0.644020  0.409156  1
  Si  Si685  1  0.121840  0.856102  0.362631  1
  Si  Si686  1  0.223954  0.357553  0.335374  1
  Si  Si687  1  0.275936  0.857559  0.420259  1
  Si  Si688  1  0.076468  0.642555  0.371460  1
  Si  Si689  1  0.188392  0.140792  0.384409  1
  Si  Si690  1  0.311498  0.640788  0.371223  1
  Si  Si691  1  0.276888  0.859335  0.362759  1
  Si  Si692  1  0.223003  0.359337  0.392874  1
  Si  Si693  1  0.076624  0.989579  0.391648  1
  Si  Si694  1  0.306467  0.010545  0.335414  1
  Si  Si695  1  0.193428  0.510548  0.420219  1
  Si  Si696  1  0.121848  0.855556  0.420246  1
  Si  Si697  1  0.076526  0.644559  0.409158  1
  Si  Si698  1  0.076698  0.000000  0.335434  1
  Si  Si699  1  0.423197  0.500064  0.420201  1
  Si  Si700  1  0.576705  0.500042  0.420202  1
  Si  Si701  1  0.621840  0.356088  0.393006  1
  Si  Si702  1  0.378051  0.356113  0.393005  1
  Si  Si703  1  0.576463  0.142543  0.384176  1
  Si  Si704  1  0.423423  0.142566  0.384175  1
  Si  Si705  1  0.423266  0.489573  0.363985  1
  Si  Si706  1  0.576627  0.489554  0.363987  1
  Si  Si707  1  0.378043  0.355547  0.335387  1
  Si  Si708  1  0.576520  0.144538  0.346479  1
  Si  Si709  1  0.621851  0.355528  0.335390  1
  Si  Si710  1  0.423367  0.144556  0.346477  1
  Si  Si711  1  0.807417  0.500034  0.363759  1
  Si  Si712  1  0.692473  0.000000  0.391879  1
  Si  Si713  1  0.923190  0.000000  0.335435  1
  Si  Si714  1  0.878047  0.856084  0.362632  1
  Si  Si715  1  0.687871  0.643989  0.409159  1
  Si  Si716  1  0.812026  0.143980  0.346479  1
  Si  Si717  1  0.923428  0.642540  0.371462  1
  Si  Si718  1  0.723959  0.857533  0.420261  1
  Si  Si719  1  0.775939  0.357526  0.335377  1
  Si  Si720  1  0.776889  0.359313  0.392876  1
  Si  Si721  1  0.722999  0.859309  0.362763  1
  Si  Si722  1  0.688402  0.640756  0.371226  1
  Si  Si723  1  0.811486  0.140761  0.384411  1
  Si  Si724  1  0.806482  0.510515  0.420221  1
  Si  Si725  1  0.693412  0.010511  0.335416  1
  Si  Si726  1  0.923263  0.989561  0.391650  1
  Si  Si727  1  0.923374  0.644541  0.409159  1
  Si  Si728  1  0.878048  0.855535  0.420248  1
  Si  Si729  1  0.307411  0.000000  0.486083  1
  Si  Si730  1  0.192496  0.500046  0.514199  1
  Si  Si731  1  0.121850  0.856086  0.515332  1
  Si  Si732  1  0.187852  0.143999  0.531482  1
  Si  Si733  1  0.312043  0.644010  0.468801  1
  Si  Si734  1  0.076476  0.642544  0.506500  1
  Si  Si735  1  0.223957  0.357540  0.542583  1
  Si  Si736  1  0.275939  0.857549  0.457699  1
  Si  Si737  1  0.276898  0.859321  0.515200  1
  Si  Si738  1  0.223011  0.359314  0.485083  1
  Si  Si739  1  0.188395  0.140773  0.493550  1
  Si  Si740  1  0.311508  0.640779  0.506733  1
  Si  Si741  1  0.306472  0.010540  0.542544  1
  Si  Si742  1  0.193432  0.510533  0.457739  1
  Si  Si743  1  0.076629  0.989551  0.486313  1
  Si  Si744  1  0.076531  0.644541  0.468802  1
  Si  Si745  1  0.121851  0.855537  0.457714  1
  Si  Si746  1  0.076700  0.000000  0.542528  1
  Si  Si747  1  0.423199  0.500049  0.457756  1
  Si  Si748  1  0.378058  0.356088  0.484951  1
  Si  Si749  1  0.621849  0.356066  0.484952  1
  Si  Si750  1  0.423432  0.142546  0.493783  1
  Si  Si751  1  0.576472  0.142525  0.493785  1
  Si  Si752  1  0.576634  0.489530  0.513972  1
  Si  Si753  1  0.423272  0.489557  0.513971  1
  Si  Si754  1  0.621854  0.355514  0.542571  1
  Si  Si755  1  0.423372  0.144549  0.531480  1
  Si  Si756  1  0.378045  0.355541  0.542569  1
  Si  Si757  1  0.576524  0.144523  0.531482  1
  Si  Si758  1  0.576707  0.500025  0.457758  1
  Si  Si759  1  0.807425  0.500010  0.514202  1
  Si  Si760  1  0.692483  0.000000  0.486086  1
  Si  Si761  1  0.687872  0.643968  0.468804  1
  Si  Si762  1  0.812029  0.143964  0.531485  1
  Si  Si763  1  0.878054  0.856057  0.515334  1
  Si  Si764  1  0.723961  0.857514  0.457702  1
  Si  Si765  1  0.775943  0.357513  0.542585  1
  Si  Si766  1  0.923436  0.642519  0.506501  1
  Si  Si767  1  0.688410  0.640736  0.506736  1
  Si  Si768  1  0.811494  0.140742  0.493553  1
  Si  Si769  1  0.776898  0.359289  0.485085  1
  Si  Si770  1  0.723005  0.859285  0.515202  1
  Si  Si771  1  0.923268  0.989534  0.486315  1
  Si  Si772  1  0.806486  0.510502  0.457741  1
  Si  Si773  1  0.693413  0.010496  0.542547  1
  Si  Si774  1  0.878049  0.855520  0.457716  1
  Si  Si775  1  0.923379  0.644526  0.468804  1
  Si  Si776  1  0.923191  0.000000  0.542529  1
  Si  Si777  1  0.307406  -0.000000  0.636525  1
  Si  Si778  1  0.192485  0.500060  0.608407  1
  Si  Si779  1  0.187853  0.144015  0.591126  1
  Si  Si780  1  0.312039  0.644020  0.653806  1
  Si  Si781  1  0.121840  0.856102  0.607281  1
  Si  Si782  1  0.223954  0.357553  0.580024  1
  Si  Si783  1  0.275936  0.857559  0.664908  1
  Si  Si784  1  0.076468  0.642555  0.616110  1
  Si  Si785  1  0.188392  0.140792  0.629059  1
  Si  Si786  1  0.311498  0.640788  0.615873  1
  Si  Si787  1  0.276888  0.859335  0.607409  1
  Si  Si788  1  0.223003  0.359337  0.637524  1
  Si  Si789  1  0.076624  0.989579  0.636298  1
  Si  Si790  1  0.306467  0.010545  0.580064  1
  Si  Si791  1  0.193428  0.510548  0.664869  1
  Si  Si792  1  0.121848  0.855556  0.664896  1
  Si  Si793  1  0.076526  0.644559  0.653808  1
  Si  Si794  1  0.076698  -0.000000  0.580084  1
  Si  Si795  1  0.423197  0.500064  0.664851  1
  Si  Si796  1  0.576705  0.500042  0.664852  1
  Si  Si797  1  0.621840  0.356088  0.637656  1
  Si  Si798  1  0.378051  0.356113  0.637655  1
  Si  Si799  1  0.576463  0.142543  0.628826  1
  Si  Si800  1  0.423423  0.142566  0.628825  1
  Si  Si801  1  0.423266  0.489573  0.608634  1
  Si  Si802  1  0.576627  0.489554  0.608636  1
  Si  Si803  1  0.378043  0.355547  0.580037  1
  Si  Si804  1  0.576520  0.144538  0.591129  1
  Si  Si805  1  0.621851  0.355528  0.580039  1
  Si  Si806  1  0.423367  0.144556  0.591127  1
  Si  Si807  1  0.807417  0.500034  0.608409  1
  Si  Si808  1  0.692473  0.000000  0.636528  1
  Si  Si809  1  0.923190  0.000000  0.580085  1
  Si  Si810  1  0.878047  0.856084  0.607282  1
  Si  Si811  1  0.687871  0.643989  0.653808  1
  Si  Si812  1  0.812026  0.143980  0.591128  1
  Si  Si813  1  0.923428  0.642540  0.616112  1
  Si  Si814  1  0.723959  0.857533  0.664911  1
  Si  Si815  1  0.775939  0.357526  0.580026  1
  Si  Si816  1  0.776889  0.359313  0.637525  1
  Si  Si817  1  0.722999  0.859309  0.607412  1
  Si  Si818  1  0.688402  0.640756  0.615876  1
  Si  Si819  1  0.811486  0.140761  0.629061  1
  Si  Si820  1  0.806482  0.510515  0.664871  1
  Si  Si821  1  0.693412  0.010511  0.580066  1
  Si  Si822  1  0.923263  0.989561  0.636300  1
  Si  Si823  1  0.923374  0.644541  0.653809  1
  Si  Si824  1  0.878048  0.855535  0.664898  1
  Si  Si825  1  0.307411  0.000000  0.730733  1
  Si  Si826  1  0.192496  0.500046  0.758849  1
  Si  Si827  1  0.121850  0.856086  0.759982  1
  Si  Si828  1  0.187852  0.143999  0.776132  1
  Si  Si829  1  0.312043  0.644010  0.713451  1
  Si  Si830  1  0.076476  0.642544  0.751149  1
  Si  Si831  1  0.223957  0.357540  0.787232  1
  Si  Si832  1  0.275939  0.857549  0.702349  1
  Si  Si833  1  0.276898  0.859321  0.759850  1
  Si  Si834  1  0.223011  0.359314  0.729733  1
  Si  Si835  1  0.188395  0.140773  0.738199  1
  Si  Si836  1  0.311508  0.640779  0.751383  1
  Si  Si837  1  0.306472  0.010540  0.787194  1
  Si  Si838  1  0.193432  0.510533  0.702389  1
  Si  Si839  1  0.076629  0.989551  0.730963  1
  Si  Si840  1  0.076531  0.644541  0.713452  1
  Si  Si841  1  0.121851  0.855537  0.702364  1
  Si  Si842  1  0.076700  0.000000  0.787178  1
  Si  Si843  1  0.423199  0.500049  0.702406  1
  Si  Si844  1  0.378058  0.356088  0.729601  1
  Si  Si845  1  0.621849  0.356066  0.729602  1
  Si  Si846  1  0.423432  0.142546  0.738433  1
  Si  Si847  1  0.576472  0.142525  0.738434  1
  Si  Si848  1  0.576634  0.489530  0.758622  1
  Si  Si849  1  0.423272  0.489557  0.758620  1
  Si  Si850  1  0.621854  0.355514  0.787221  1
  Si  Si851  1  0.423372  0.144549  0.776130  1
  Si  Si852  1  0.378045  0.355541  0.787218  1
  Si  Si853  1  0.576524  0.144523  0.776132  1
  Si  Si854  1  0.576707  0.500025  0.702407  1
  Si  Si855  1  0.807425  0.500010  0.758852  1
  Si  Si856  1  0.692483  0.000000  0.730736  1
  Si  Si857  1  0.687872  0.643968  0.713453  1
  Si  Si858  1  0.812029  0.143964  0.776135  1
  Si  Si859  1  0.878054  0.856057  0.759983  1
  Si  Si860  1  0.723961  0.857514  0.702352  1
  Si  Si861  1  0.775943  0.357513  0.787235  1
  Si  Si862  1  0.923436  0.642519  0.751151  1
  Si  Si863  1  0.688410  0.640736  0.751386  1
  Si  Si864  1  0.811494  0.140742  0.738203  1
  Si  Si865  1  0.776898  0.359289  0.729735  1
  Si  Si866  1  0.723005  0.859285  0.759852  1
  Si  Si867  1  0.923268  0.989534  0.730965  1
  Si  Si868  1  0.806486  0.510502  0.702391  1
  Si  Si869  1  0.693413  0.010496  0.787196  1
  Si  Si870  1  0.878049  0.855520  0.702366  1
  Si  Si871  1  0.923379  0.644526  0.713453  1
  Si  Si872  1  0.923191  0.000000  0.787179  1
  H  H873  1  0.213587  0.378404  0.061020  1
  H  H874  1  0.302815  0.987305  0.061021  1
  H  H875  1  0.087933  0.980631  0.061023  1
  H  H876  1  0.611001  0.377971  0.061022  1
  H  H877  1  0.388895  0.377994  0.061020  1
  H  H878  1  0.911958  0.980607  0.061024  1
  H  H879  1  0.786309  0.378375  0.061023  1
  H  H880  1  0.697064  0.987263  0.061024  1
  H  H881  1  0.213587  0.378404  0.816936  1
  H  H882  1  0.302815  0.987305  0.816938  1
  H  H883  1  0.087933  0.980631  0.816939  1
  H  H884  1  0.611001  0.377971  0.816938  1
  H  H885  1  0.388895  0.377994  0.816936  1
  H  H886  1  0.911958  0.980607  0.816941  1
  H  H887  1  0.786309  0.378375  0.816939  1
  H  H888  1  0.697064  0.987263  0.816940  1
