# generated using pymatgen
data_Si17H2O35
_symmetry_space_group_name_H-M   'P 1'
_cell_length_a   27.13270649
_cell_length_b   27.13690969
_cell_length_c   94.64979377
_cell_angle_alpha   90.00000000
_cell_angle_beta   45.02703986
_cell_angle_gamma   59.97390214
_symmetry_Int_Tables_number   1
_chemical_formula_structural   Si17H2O35
_chemical_formula_sum   'Si408 H48 O840'
_cell_volume   34850.6087
_cell_formula_units_Z   24
loop_
 _symmetry_equiv_pos_site_id
 _symmetry_equiv_pos_as_xyz
  1  'x, y, z'
loop_
 _atom_site_type_symbol
 _atom_site_label
 _atom_site_symmetry_multiplicity
 _atom_site_fract_x
 _atom_site_fract_y
 _atom_site_fract_z
 _atom_site_occupancy
  O  O1  1  0.352792  0.145204  0.102684  1
  O  O2  1  0.512461  0.332627  0.102096  1
  O  O3  1  0.163343  0.497130  0.103324  1
  O  O4  1  0.352804  0.650192  0.101884  1
  O  O5  1  0.013426  0.333933  0.102504  1
  O  O6  1  0.163405  0.000000  0.103081  1
  O  O7  1  0.852937  0.144869  0.102249  1
  O  O8  1  0.658918  0.000000  0.103780  1
  O  O9  1  0.662593  0.497239  0.103552  1
  O  O10  1  0.849814  0.653497  0.102791  1
  O  O11  1  0.517490  0.843074  0.101860  1
  O  O12  1  0.017872  0.836695  0.100968  1
  O  O13  1  0.647924  0.294469  0.185657  1
  O  O14  1  0.666129  0.042939  0.185677  1
  O  O15  1  0.909668  0.050903  0.183095  1
  O  O16  1  0.518938  0.041712  0.261686  1
  O  O17  1  0.008345  0.289331  0.164877  1
  O  O18  1  0.234705  0.305733  0.268635  1
  O  O19  1  0.647535  0.047658  0.269506  1
  O  O20  1  0.662945  0.293122  0.262296  1
  O  O21  1  0.893790  0.312631  0.168802  1
  O  O22  1  0.515401  0.293313  0.245530  1
  O  O23  1  0.001134  0.043716  0.143448  1
  O  O24  1  0.231159  0.053848  0.149864  1
  O  O25  1  0.850298  0.201063  0.228561  1
  O  O26  1  0.493673  0.209928  0.247228  1
  O  O27  1  0.266747  0.191457  0.143648  1
  O  O28  1  0.835887  0.210039  0.149978  1
  O  O29  1  0.612977  0.185303  0.241572  1
  O  O30  1  0.976691  0.211466  0.169377  1
  O  O31  1  0.515738  0.087903  0.203261  1
  O  O32  1  0.910632  0.090046  0.206877  1
  O  O33  1  0.433132  0.161753  0.270731  1
  O  O34  1  0.166297  0.247691  0.141683  1
  O  O35  1  0.333008  0.003058  0.107093  1
  O  O36  1  0.592518  0.249103  0.267254  1
  O  O37  1  0.490419  0.166800  0.106492  1
  O  O38  1  0.144570  0.103425  0.144088  1
  O  O39  1  0.599945  0.152171  0.268140  1
  O  O40  1  0.913181  0.249482  0.143342  1
  O  O41  1  0.352792  0.145204  0.305291  1
  O  O42  1  0.335679  0.251593  0.270508  1
  O  O43  1  0.057646  0.093724  0.143582  1
  O  O44  1  0.499771  0.126581  0.231968  1
  O  O45  1  0.756188  0.121867  0.229814  1
  O  O46  1  0.501577  0.123371  0.282096  1
  O  O47  1  0.001060  0.122890  0.129296  1
  O  O48  1  0.245799  0.125901  0.132642  1
  O  O49  1  0.993857  0.128040  0.182029  1
  O  O50  1  0.649541  0.173900  0.208121  1
  O  O51  1  0.755285  0.167927  0.169110  1
  O  O52  1  0.766815  0.069424  0.168162  1
  O  O53  1  0.834244  0.088506  0.174360  1
  O  O54  1  0.761716  0.321142  0.238807  1
  O  O55  1  0.512461  0.332627  0.304703  1
  O  O56  1  0.666369  0.537859  0.182870  1
  O  O57  1  0.892424  0.560198  0.186294  1
  O  O58  1  0.519390  0.539812  0.261795  1
  O  O59  1  0.652457  0.548115  0.267978  1
  O  O60  1  0.005485  0.541090  0.144448  1
  O  O61  1  0.234736  0.562871  0.150556  1
  O  O62  1  0.839083  0.451178  0.226100  1
  O  O63  1  0.599724  0.439243  0.228011  1
  O  O64  1  0.983019  0.457865  0.150615  1
  O  O65  1  0.854731  0.453530  0.142164  1
  O  O66  1  0.493834  0.459598  0.269985  1
  O  O67  1  0.263735  0.448200  0.263309  1
  O  O68  1  0.988849  0.409303  0.208202  1
  O  O69  1  0.587953  0.502158  0.209654  1
  O  O70  1  0.895514  0.599284  0.209465  1
  O  O71  1  0.442818  0.655728  0.267746  1
  O  O72  1  0.148257  0.354212  0.106908  1
  O  O73  1  0.900125  0.349179  0.143521  1
  O  O74  1  0.432196  0.412398  0.271247  1
  O  O75  1  0.163343  0.497130  0.305930  1
  O  O76  1  0.146454  0.603139  0.145097  1
  O  O77  1  0.593164  0.405818  0.204910  1
  O  O78  1  0.906670  0.500063  0.205156  1
  O  O79  1  0.585748  0.662393  0.273026  1
  O  O80  1  0.843796  0.335990  0.204398  1
  O  O81  1  0.352804  0.650192  0.304490  1
  O  O82  1  0.069361  0.337179  0.141195  1
  O  O83  1  0.350562  0.399417  0.269121  1
  O  O84  1  0.333592  0.503932  0.108293  1
  O  O85  1  0.065912  0.591191  0.142138  1
  O  O86  1  0.502338  0.374374  0.231876  1
  O  O87  1  0.507252  0.627507  0.229343  1
  O  O88  1  0.743849  0.625379  0.232505  1
  O  O89  1  0.508711  0.620521  0.279701  1
  O  O90  1  0.002426  0.373083  0.179894  1
  O  O91  1  0.253971  0.373577  0.279492  1
  O  O92  1  0.497345  0.378025  0.283287  1
  O  O93  1  0.748219  0.374599  0.181601  1
  O  O94  1  0.001103  0.620596  0.129808  1
  O  O95  1  0.248490  0.628778  0.130891  1
  O  O96  1  0.995645  0.624919  0.181565  1
  O  O97  1  0.997701  0.377402  0.130739  1
  O  O98  1  0.734076  0.427278  0.245550  1
  O  O99  1  0.659154  0.414643  0.240873  1
  O  O100  1  0.751144  0.573315  0.172669  1
  O  O101  1  0.846923  0.580792  0.169808  1
  O  O102  1  0.007890  0.586654  0.204438  1
  O  O103  1  0.013426  0.333933  0.305110  1
  O  O104  1  0.488090  0.408523  0.208816  1
  O  O105  1  0.507060  0.585951  0.205163  1
  O  O106  1  0.485988  0.657838  0.107535  1
  O  O107  1  0.662139  0.664832  0.209829  1
  O  O108  1  0.648441  0.794488  0.184585  1
  O  O109  1  0.005162  0.789831  0.165739  1
  O  O110  1  0.231860  0.807558  0.269859  1
  O  O111  1  0.665032  0.799986  0.261100  1
  O  O112  1  0.913302  0.798239  0.163077  1
  O  O113  1  0.519159  0.792565  0.243367  1
  O  O114  1  0.851378  0.704813  0.228049  1
  O  O115  1  0.837304  0.958131  0.230028  1
  O  O116  1  0.606555  0.939197  0.226702  1
  O  O117  1  0.980533  0.960658  0.148915  1
  O  O118  1  0.494449  0.711244  0.246945  1
  O  O119  1  0.262906  0.699147  0.143278  1
  O  O120  1  0.852738  0.950296  0.142601  1
  O  O121  1  0.835688  0.700826  0.150687  1
  O  O122  1  0.588136  0.702734  0.248959  1
  O  O123  1  0.980143  0.708598  0.169154  1
  O  O124  1  0.491053  0.961530  0.269116  1
  O  O125  1  0.259937  0.940381  0.263590  1
  O  O126  1  0.163405  0.000000  0.305688  1
  O  O127  1  0.163288  0.751666  0.141167  1
  O  O128  1  0.149428  0.845827  0.107793  1
  O  O129  1  0.593189  0.753005  0.269708  1
  O  O130  1  0.911603  0.838808  0.139471  1
  O  O131  1  0.433769  0.910381  0.270068  1
  O  O132  1  0.605417  0.899206  0.203130  1
  O  O133  1  0.906723  0.747357  0.143022  1
  O  O134  1  0.338235  0.749094  0.269951  1
  O  O135  1  0.047010  0.851973  0.147154  1
  O  O136  1  0.351015  0.897834  0.268215  1
  O  O137  1  0.500575  0.876452  0.231176  1
  O  O138  1  0.996308  0.869630  0.183411  1
  O  O139  1  0.244663  0.875609  0.283591  1
  O  O140  1  0.497864  0.879495  0.282554  1
  O  O141  1  0.755463  0.874971  0.180426  1
  O  O142  1  0.995491  0.875000  0.131386  1
  O  O143  1  0.590865  0.000000  0.208178  1
  O  O144  1  0.748118  0.927808  0.239736  1
  O  O145  1  0.652568  0.918415  0.243036  1
  O  O146  1  0.734732  0.674059  0.174095  1
  O  O147  1  0.837072  0.836435  0.202528  1
  O  O148  1  0.769074  0.824599  0.237636  1
  O  O149  1  0.913920  0.994768  0.203663  1
  O  O150  1  0.147426  0.292830  0.185093  1
  O  O151  1  0.162229  0.046324  0.186225  1
  O  O152  1  0.401170  0.060228  0.184838  1
  O  O153  1  0.019744  0.041673  0.261148  1
  O  O154  1  0.505490  0.291102  0.165530  1
  O  O155  1  0.733769  0.305098  0.269102  1
  O  O156  1  0.146989  0.046134  0.269843  1
  O  O157  1  0.166307  0.288626  0.261919  1
  O  O158  1  0.392592  0.312592  0.169187  1
  O  O159  1  0.019349  0.290527  0.243996  1
  O  O160  1  0.495412  0.048587  0.144626  1
  O  O161  1  0.731053  0.057089  0.150868  1
  O  O162  1  0.354097  0.203438  0.227443  1
  O  O163  1  0.995633  0.208699  0.246405  1
  O  O164  1  0.762313  0.200825  0.143580  1
  O  O165  1  0.335295  0.212483  0.149379  1
  O  O166  1  0.108512  0.187291  0.242922  1
  O  O167  1  0.478424  0.210833  0.169232  1
  O  O168  1  0.989097  0.165544  0.106953  1
  O  O169  1  0.407543  0.093548  0.207927  1
  O  O170  1  0.934295  0.162214  0.270549  1
  O  O171  1  0.665783  0.248297  0.140540  1
  O  O172  1  0.086643  0.250574  0.269163  1
  O  O173  1  0.646758  0.103159  0.144118  1
  O  O174  1  0.014512  0.086988  0.203439  1
  O  O175  1  0.099378  0.150936  0.268618  1
  O  O176  1  0.412647  0.250832  0.143299  1
  O  O177  1  0.852937  0.144869  0.304855  1
  O  O178  1  0.835124  0.252522  0.270822  1
  O  O179  1  0.560094  0.093949  0.142904  1
  O  O180  1  0.997226  0.126778  0.232370  1
  O  O181  1  0.251648  0.125718  0.231163  1
  O  O182  1  0.001694  0.122003  0.282208  1
  O  O183  1  0.499196  0.125059  0.129500  1
  O  O184  1  0.743781  0.129225  0.133746  1
  O  O185  1  0.497502  0.125868  0.181155  1
  O  O186  1  0.155923  0.167960  0.207667  1
  O  O187  1  0.259800  0.169069  0.170528  1
  O  O188  1  0.260948  0.075539  0.167563  1
  O  O189  1  0.341912  0.074424  0.172327  1
  O  O190  1  0.252057  0.325847  0.240123  1
  O  O191  1  0.834289  0.005409  0.108004  1
  O  O192  1  0.658918  0.000000  0.306387  1
  O  O193  1  0.166949  0.536693  0.182839  1
  O  O194  1  0.399159  0.556356  0.185469  1
  O  O195  1  0.012022  0.542452  0.262687  1
  O  O196  1  0.152904  0.549324  0.267968  1
  O  O197  1  0.501233  0.542447  0.144389  1
  O  O198  1  0.737167  0.560409  0.149620  1
  O  O199  1  0.339372  0.450800  0.226000  1
  O  O200  1  0.096314  0.440821  0.228186  1
  O  O201  1  0.477796  0.460497  0.150898  1
  O  O202  1  0.355116  0.453022  0.141736  1
  O  O203  1  0.996262  0.457294  0.269457  1
  O  O204  1  0.764220  0.448451  0.263380  1
  O  O205  1  0.984317  0.659077  0.107550  1
  O  O206  1  0.086312  0.500949  0.209034  1
  O  O207  1  0.395160  0.599581  0.209889  1
  O  O208  1  0.941856  0.657182  0.268119  1
  O  O209  1  0.647563  0.355322  0.107412  1
  O  O210  1  0.400421  0.349789  0.143716  1
  O  O211  1  0.938591  0.407678  0.269779  1
  O  O212  1  0.662593  0.497239  0.306159  1
  O  O213  1  0.648082  0.600936  0.144371  1
  O  O214  1  0.096590  0.402185  0.203952  1
  O  O215  1  0.408803  0.498941  0.205299  1
  O  O216  1  0.083806  0.663105  0.272487  1
  O  O217  1  0.849814  0.653497  0.305398  1
  O  O218  1  0.561953  0.341131  0.142321  1
  O  O219  1  0.850955  0.398488  0.269246  1
  O  O220  1  0.835811  0.500202  0.107345  1
  O  O221  1  0.564078  0.588633  0.142979  1
  O  O222  1  0.001315  0.373842  0.231448  1
  O  O223  1  0.008229  0.624674  0.229193  1
  O  O224  1  0.246279  0.623210  0.232076  1
  O  O225  1  0.010683  0.617201  0.279313  1
  O  O226  1  0.504003  0.372394  0.179816  1
  O  O227  1  0.753009  0.374176  0.279568  1
  O  O228  1  0.000000  0.376580  0.282921  1
  O  O229  1  0.247803  0.375469  0.181675  1
  O  O230  1  0.500978  0.622534  0.130289  1
  O  O231  1  0.753044  0.624288  0.129265  1
  O  O232  1  0.497974  0.623560  0.181723  1
  O  O233  1  0.500496  0.377151  0.129228  1
  O  O234  1  0.231956  0.428916  0.245784  1
  O  O235  1  0.158576  0.418516  0.240137  1
  O  O236  1  0.252152  0.571747  0.173035  1
  O  O237  1  0.336445  0.586800  0.173430  1
  O  O238  1  0.251245  0.664544  0.169233  1
  O  O239  1  0.343227  0.335303  0.204729  1
  O  O240  1  0.148337  0.791644  0.185827  1
  O  O241  1  0.502802  0.788912  0.167101  1
  O  O242  1  0.734303  0.809120  0.268949  1
  O  O243  1  0.166529  0.795846  0.260934  1
  O  O244  1  0.412206  0.799185  0.163826  1
  O  O245  1  0.006170  0.798140  0.247326  1
  O  O246  1  0.352391  0.704700  0.228161  1
  O  O247  1  0.335664  0.960276  0.229688  1
  O  O248  1  0.112001  0.937131  0.225700  1
  O  O249  1  0.496365  0.954727  0.148806  1
  O  O250  1  0.994977  0.710090  0.246234  1
  O  O251  1  0.764330  0.691760  0.143676  1
  O  O252  1  0.348208  0.953242  0.143810  1
  O  O253  1  0.335625  0.704297  0.150838  1
  O  O254  1  0.100328  0.692827  0.244980  1
  O  O255  1  0.480246  0.706602  0.169065  1
  O  O256  1  0.990537  0.962449  0.268688  1
  O  O257  1  0.753806  0.941725  0.264625  1
  O  O258  1  0.660953  0.750567  0.142739  1
  O  O259  1  0.652685  0.842832  0.106773  1
  O  O260  1  0.091839  0.753080  0.267784  1
  O  O261  1  0.416689  0.839642  0.139372  1
  O  O262  1  0.925532  0.915134  0.272412  1
  O  O263  1  0.109331  0.896514  0.202667  1
  O  O264  1  0.517490  0.843074  0.304467  1
  O  O265  1  0.411395  0.747977  0.142040  1
  O  O266  1  0.017872  0.836695  0.303575  1
  O  O267  1  0.839986  0.747076  0.269098  1
  O  O268  1  0.555089  0.841957  0.144892  1
  O  O269  1  0.846124  0.904380  0.268735  1
  O  O270  1  0.495156  0.912848  0.207074  1
  O  O271  1  0.003586  0.875415  0.231950  1
  O  O272  1  0.493330  0.872897  0.183080  1
  O  O273  1  0.747650  0.874239  0.283523  1
  O  O274  1  0.000000  0.880854  0.282281  1
  O  O275  1  0.258491  0.875003  0.179492  1
  O  O276  1  0.487874  0.886403  0.133428  1
  O  O277  1  0.150522  0.678086  0.209443  1
  O  O278  1  0.250358  0.925642  0.239629  1
  O  O279  1  0.150465  0.919796  0.243906  1
  O  O280  1  0.996326  0.910301  0.207847  1
  O  O281  1  0.335413  0.833744  0.203344  1
  O  O282  1  0.263950  0.826005  0.239265  1
  O  O283  1  0.092381  0.998955  0.207828  1
  O  O284  1  0.411022  0.998144  0.203533  1
  O  O285  1  0.647924  0.294469  0.388264  1
  O  O286  1  0.666129  0.042939  0.388283  1
  O  O287  1  0.909668  0.050903  0.385702  1
  O  O288  1  0.518938  0.041712  0.464292  1
  O  O289  1  0.008345  0.289331  0.367484  1
  O  O290  1  0.234705  0.305733  0.471241  1
  O  O291  1  0.647535  0.047658  0.472113  1
  O  O292  1  0.662945  0.293122  0.464902  1
  O  O293  1  0.893790  0.312631  0.371409  1
  O  O294  1  0.515401  0.293313  0.448137  1
  O  O295  1  0.001134  0.043716  0.346055  1
  O  O296  1  0.231159  0.053848  0.352471  1
  O  O297  1  0.850298  0.201063  0.431167  1
  O  O298  1  0.493673  0.209928  0.449834  1
  O  O299  1  0.266747  0.191457  0.346254  1
  O  O300  1  0.835887  0.210039  0.352585  1
  O  O301  1  0.612977  0.185303  0.444178  1
  O  O302  1  0.976691  0.211466  0.371983  1
  O  O303  1  0.515738  0.087903  0.405868  1
  O  O304  1  0.910632  0.090046  0.409484  1
  O  O305  1  0.433132  0.161753  0.473338  1
  O  O306  1  0.166297  0.247691  0.344289  1
  O  O307  1  0.333008  0.003058  0.309700  1
  O  O308  1  0.592518  0.249103  0.469860  1
  O  O309  1  0.490419  0.166800  0.309099  1
  O  O310  1  0.144570  0.103425  0.346695  1
  O  O311  1  0.599945  0.152171  0.470747  1
  O  O312  1  0.913181  0.249482  0.345948  1
  O  O313  1  0.352792  0.145204  0.507897  1
  O  O314  1  0.335679  0.251593  0.473115  1
  O  O315  1  0.057646  0.093724  0.346188  1
  O  O316  1  0.499771  0.126581  0.434575  1
  O  O317  1  0.756188  0.121867  0.432421  1
  O  O318  1  0.501577  0.123371  0.484703  1
  O  O319  1  0.001060  0.122890  0.331902  1
  O  O320  1  0.245799  0.125901  0.335249  1
  O  O321  1  0.993857  0.128040  0.384636  1
  O  O322  1  0.649541  0.173900  0.410728  1
  O  O323  1  0.755285  0.167927  0.371717  1
  O  O324  1  0.766815  0.069424  0.370769  1
  O  O325  1  0.834244  0.088506  0.376967  1
  O  O326  1  0.761716  0.321142  0.441414  1
  O  O327  1  0.512461  0.332627  0.507310  1
  O  O328  1  0.666369  0.537859  0.385476  1
  O  O329  1  0.892424  0.560198  0.388901  1
  O  O330  1  0.519390  0.539812  0.464402  1
  O  O331  1  0.652457  0.548115  0.470584  1
  O  O332  1  0.005485  0.541090  0.347054  1
  O  O333  1  0.234736  0.562871  0.353162  1
  O  O334  1  0.839083  0.451178  0.428706  1
  O  O335  1  0.599724  0.439243  0.430617  1
  O  O336  1  0.983019  0.457865  0.353221  1
  O  O337  1  0.854731  0.453530  0.344771  1
  O  O338  1  0.493834  0.459598  0.472592  1
  O  O339  1  0.263735  0.448200  0.465916  1
  O  O340  1  0.988849  0.409303  0.410808  1
  O  O341  1  0.587953  0.502158  0.412260  1
  O  O342  1  0.895514  0.599284  0.412071  1
  O  O343  1  0.442818  0.655728  0.470352  1
  O  O344  1  0.148257  0.354212  0.309515  1
  O  O345  1  0.900125  0.349179  0.346128  1
  O  O346  1  0.432196  0.412398  0.473854  1
  O  O347  1  0.163343  0.497130  0.508537  1
  O  O348  1  0.146454  0.603139  0.347704  1
  O  O349  1  0.593164  0.405818  0.407516  1
  O  O350  1  0.906670  0.500063  0.407762  1
  O  O351  1  0.585748  0.662393  0.475633  1
  O  O352  1  0.843796  0.335990  0.407004  1
  O  O353  1  0.352804  0.650192  0.507097  1
  O  O354  1  0.069361  0.337179  0.343801  1
  O  O355  1  0.350562  0.399417  0.471728  1
  O  O356  1  0.333592  0.503932  0.310899  1
  O  O357  1  0.065912  0.591191  0.344745  1
  O  O358  1  0.502338  0.374374  0.434482  1
  O  O359  1  0.507252  0.627507  0.431949  1
  O  O360  1  0.743849  0.625379  0.435111  1
  O  O361  1  0.508711  0.620521  0.482307  1
  O  O362  1  0.002426  0.373083  0.382501  1
  O  O363  1  0.253971  0.373577  0.482098  1
  O  O364  1  0.497345  0.378025  0.485893  1
  O  O365  1  0.748219  0.374599  0.384207  1
  O  O366  1  0.001103  0.620596  0.332414  1
  O  O367  1  0.248490  0.628778  0.333497  1
  O  O368  1  0.995645  0.624919  0.384172  1
  O  O369  1  0.997701  0.377402  0.333346  1
  O  O370  1  0.734076  0.427278  0.448157  1
  O  O371  1  0.659154  0.414643  0.443480  1
  O  O372  1  0.751144  0.573315  0.375275  1
  O  O373  1  0.846923  0.580792  0.372414  1
  O  O374  1  0.007890  0.586654  0.407044  1
  O  O375  1  0.013426  0.333933  0.507717  1
  O  O376  1  0.488090  0.408523  0.411423  1
  O  O377  1  0.507060  0.585951  0.407770  1
  O  O378  1  0.485988  0.657838  0.310142  1
  O  O379  1  0.662139  0.664832  0.412436  1
  O  O380  1  0.648441  0.794488  0.387191  1
  O  O381  1  0.005162  0.789831  0.368346  1
  O  O382  1  0.231860  0.807558  0.472465  1
  O  O383  1  0.665032  0.799986  0.463706  1
  O  O384  1  0.913302  0.798239  0.365684  1
  O  O385  1  0.519159  0.792565  0.445973  1
  O  O386  1  0.851378  0.704813  0.430656  1
  O  O387  1  0.837304  0.958131  0.432634  1
  O  O388  1  0.606555  0.939197  0.429308  1
  O  O389  1  0.980533  0.960658  0.351522  1
  O  O390  1  0.494449  0.711244  0.449551  1
  O  O391  1  0.262906  0.699147  0.345885  1
  O  O392  1  0.852738  0.950296  0.345208  1
  O  O393  1  0.835688  0.700826  0.353294  1
  O  O394  1  0.588136  0.702734  0.451565  1
  O  O395  1  0.980143  0.708598  0.371760  1
  O  O396  1  0.491053  0.961530  0.471722  1
  O  O397  1  0.259937  0.940381  0.466197  1
  O  O398  1  0.163405  0.000000  0.508294  1
  O  O399  1  0.163288  0.751666  0.343773  1
  O  O400  1  0.149428  0.845827  0.310399  1
  O  O401  1  0.593189  0.753005  0.472314  1
  O  O402  1  0.911603  0.838808  0.342078  1
  O  O403  1  0.433769  0.910381  0.472674  1
  O  O404  1  0.605417  0.899206  0.405737  1
  O  O405  1  0.906723  0.747357  0.345628  1
  O  O406  1  0.338235  0.749094  0.472558  1
  O  O407  1  0.047010  0.851973  0.349760  1
  O  O408  1  0.351015  0.897834  0.470821  1
  O  O409  1  0.500575  0.876452  0.433783  1
  O  O410  1  0.996308  0.869630  0.386018  1
  O  O411  1  0.244663  0.875609  0.486198  1
  O  O412  1  0.497864  0.879495  0.485160  1
  O  O413  1  0.755463  0.874971  0.383033  1
  O  O414  1  0.995491  0.875000  0.333993  1
  O  O415  1  0.590865  0.000000  0.410784  1
  O  O416  1  0.748118  0.927808  0.442343  1
  O  O417  1  0.652568  0.918415  0.445642  1
  O  O418  1  0.734732  0.674059  0.376701  1
  O  O419  1  0.837072  0.836435  0.405135  1
  O  O420  1  0.769074  0.824599  0.440242  1
  O  O421  1  0.913920  0.994768  0.406269  1
  O  O422  1  0.147426  0.292830  0.387700  1
  O  O423  1  0.162229  0.046324  0.388831  1
  O  O424  1  0.401170  0.060228  0.387444  1
  O  O425  1  0.019744  0.041673  0.463755  1
  O  O426  1  0.505490  0.291102  0.368136  1
  O  O427  1  0.733769  0.305098  0.471709  1
  O  O428  1  0.146989  0.046134  0.472449  1
  O  O429  1  0.166307  0.288626  0.464525  1
  O  O430  1  0.392592  0.312592  0.371793  1
  O  O431  1  0.019349  0.290527  0.446603  1
  O  O432  1  0.495412  0.048587  0.347233  1
  O  O433  1  0.731053  0.057089  0.353475  1
  O  O434  1  0.354097  0.203438  0.430050  1
  O  O435  1  0.995633  0.208699  0.449012  1
  O  O436  1  0.762313  0.200825  0.346186  1
  O  O437  1  0.335295  0.212483  0.351985  1
  O  O438  1  0.108512  0.187291  0.445529  1
  O  O439  1  0.478424  0.210833  0.371838  1
  O  O440  1  0.989097  0.165544  0.309559  1
  O  O441  1  0.407543  0.093548  0.410534  1
  O  O442  1  0.934295  0.162214  0.473156  1
  O  O443  1  0.665783  0.248297  0.343147  1
  O  O444  1  0.086643  0.250574  0.471770  1
  O  O445  1  0.646758  0.103159  0.346724  1
  O  O446  1  0.014512  0.086988  0.406046  1
  O  O447  1  0.099378  0.150936  0.471225  1
  O  O448  1  0.412647  0.250832  0.345906  1
  O  O449  1  0.852937  0.144869  0.507462  1
  O  O450  1  0.835124  0.252522  0.473429  1
  O  O451  1  0.560094  0.093949  0.345511  1
  O  O452  1  0.997226  0.126778  0.434977  1
  O  O453  1  0.251648  0.125718  0.433770  1
  O  O454  1  0.001694  0.122003  0.484814  1
  O  O455  1  0.499196  0.125059  0.332107  1
  O  O456  1  0.743781  0.129225  0.336353  1
  O  O457  1  0.497502  0.125868  0.383762  1
  O  O458  1  0.155923  0.167960  0.410274  1
  O  O459  1  0.259800  0.169069  0.373135  1
  O  O460  1  0.260948  0.075539  0.370169  1
  O  O461  1  0.341912  0.074424  0.374934  1
  O  O462  1  0.252057  0.325847  0.442729  1
  O  O463  1  0.834289  0.005409  0.310611  1
  O  O464  1  0.658918  0.000000  0.508993  1
  O  O465  1  0.166949  0.536693  0.385446  1
  O  O466  1  0.399159  0.556356  0.388076  1
  O  O467  1  0.012022  0.542452  0.465293  1
  O  O468  1  0.152904  0.549324  0.470575  1
  O  O469  1  0.501233  0.542447  0.346995  1
  O  O470  1  0.737167  0.560409  0.352226  1
  O  O471  1  0.339372  0.450800  0.428607  1
  O  O472  1  0.096314  0.440821  0.430793  1
  O  O473  1  0.477796  0.460497  0.353504  1
  O  O474  1  0.355116  0.453022  0.344343  1
  O  O475  1  0.996262  0.457294  0.472063  1
  O  O476  1  0.764220  0.448451  0.465986  1
  O  O477  1  0.984317  0.659077  0.310156  1
  O  O478  1  0.086312  0.500949  0.411640  1
  O  O479  1  0.395160  0.599581  0.412496  1
  O  O480  1  0.941856  0.657182  0.470725  1
  O  O481  1  0.647563  0.355322  0.310019  1
  O  O482  1  0.400421  0.349789  0.346322  1
  O  O483  1  0.938591  0.407678  0.472385  1
  O  O484  1  0.662593  0.497239  0.508765  1
  O  O485  1  0.648082  0.600936  0.346977  1
  O  O486  1  0.096590  0.402185  0.406558  1
  O  O487  1  0.408803  0.498941  0.407906  1
  O  O488  1  0.083806  0.663105  0.475093  1
  O  O489  1  0.849814  0.653497  0.508004  1
  O  O490  1  0.561953  0.341131  0.344927  1
  O  O491  1  0.850955  0.398488  0.471853  1
  O  O492  1  0.835811  0.500202  0.309952  1
  O  O493  1  0.564078  0.588633  0.345586  1
  O  O494  1  0.001315  0.373842  0.434054  1
  O  O495  1  0.008229  0.624674  0.431800  1
  O  O496  1  0.246279  0.623210  0.434683  1
  O  O497  1  0.010683  0.617201  0.481919  1
  O  O498  1  0.504003  0.372394  0.382422  1
  O  O499  1  0.753009  0.374176  0.482175  1
  O  O500  1  0.000000  0.376580  0.485527  1
  O  O501  1  0.247803  0.375469  0.384281  1
  O  O502  1  0.500978  0.622534  0.332895  1
  O  O503  1  0.753044  0.624288  0.331872  1
  O  O504  1  0.497974  0.623560  0.384330  1
  O  O505  1  0.500496  0.377151  0.331834  1
  O  O506  1  0.231956  0.428916  0.448390  1
  O  O507  1  0.158576  0.418516  0.442743  1
  O  O508  1  0.252152  0.571747  0.375641  1
  O  O509  1  0.336445  0.586800  0.376036  1
  O  O510  1  0.251245  0.664544  0.371839  1
  O  O511  1  0.343227  0.335303  0.407336  1
  O  O512  1  0.148337  0.791644  0.388434  1
  O  O513  1  0.502802  0.788912  0.369708  1
  O  O514  1  0.734303  0.809120  0.471556  1
  O  O515  1  0.166529  0.795846  0.463540  1
  O  O516  1  0.412206  0.799185  0.366433  1
  O  O517  1  0.006170  0.798140  0.449932  1
  O  O518  1  0.352391  0.704700  0.430767  1
  O  O519  1  0.335664  0.960276  0.432294  1
  O  O520  1  0.112001  0.937131  0.428307  1
  O  O521  1  0.496365  0.954727  0.351413  1
  O  O522  1  0.994977  0.710090  0.448840  1
  O  O523  1  0.764330  0.691760  0.346283  1
  O  O524  1  0.348208  0.953242  0.346417  1
  O  O525  1  0.335625  0.704297  0.353444  1
  O  O526  1  0.100328  0.692827  0.447587  1
  O  O527  1  0.480246  0.706602  0.371672  1
  O  O528  1  0.990537  0.962449  0.471295  1
  O  O529  1  0.753806  0.941725  0.467232  1
  O  O530  1  0.660953  0.750567  0.345346  1
  O  O531  1  0.652685  0.842832  0.309380  1
  O  O532  1  0.091839  0.753080  0.470391  1
  O  O533  1  0.416689  0.839642  0.341979  1
  O  O534  1  0.925532  0.915134  0.475019  1
  O  O535  1  0.109331  0.896514  0.405273  1
  O  O536  1  0.517490  0.843074  0.507073  1
  O  O537  1  0.411395  0.747977  0.344647  1
  O  O538  1  0.017872  0.836695  0.506181  1
  O  O539  1  0.839986  0.747076  0.471705  1
  O  O540  1  0.555089  0.841957  0.347499  1
  O  O541  1  0.846124  0.904380  0.471342  1
  O  O542  1  0.495156  0.912848  0.409680  1
  O  O543  1  0.003586  0.875415  0.434556  1
  O  O544  1  0.493330  0.872897  0.385686  1
  O  O545  1  0.747650  0.874239  0.486130  1
  O  O546  1  0.000000  0.880854  0.484887  1
  O  O547  1  0.258491  0.875003  0.382098  1
  O  O548  1  0.487874  0.886403  0.336035  1
  O  O549  1  0.150522  0.678086  0.412049  1
  O  O550  1  0.250358  0.925642  0.442235  1
  O  O551  1  0.150465  0.919796  0.446513  1
  O  O552  1  0.996326  0.910301  0.410453  1
  O  O553  1  0.335413  0.833744  0.405951  1
  O  O554  1  0.263950  0.826005  0.441872  1
  O  O555  1  0.092381  0.998955  0.410434  1
  O  O556  1  0.411022  0.998144  0.406140  1
  O  O557  1  0.647924  0.294469  0.590870  1
  O  O558  1  0.666129  0.042939  0.590890  1
  O  O559  1  0.909668  0.050903  0.588308  1
  O  O560  1  0.518938  0.041712  0.666899  1
  O  O561  1  0.008345  0.289331  0.570090  1
  O  O562  1  0.234705  0.305733  0.673848  1
  O  O563  1  0.647535  0.047658  0.674719  1
  O  O564  1  0.662945  0.293122  0.667509  1
  O  O565  1  0.893790  0.312631  0.574015  1
  O  O566  1  0.515401  0.293313  0.650743  1
  O  O567  1  0.001134  0.043716  0.548661  1
  O  O568  1  0.231159  0.053848  0.555077  1
  O  O569  1  0.850298  0.201063  0.633774  1
  O  O570  1  0.493673  0.209928  0.652441  1
  O  O571  1  0.266747  0.191457  0.548861  1
  O  O572  1  0.835887  0.210039  0.555192  1
  O  O573  1  0.612977  0.185303  0.646785  1
  O  O574  1  0.976691  0.211466  0.574590  1
  O  O575  1  0.515738  0.087903  0.608474  1
  O  O576  1  0.910632  0.090046  0.612091  1
  O  O577  1  0.433132  0.161753  0.675944  1
  O  O578  1  0.166297  0.247691  0.546896  1
  O  O579  1  0.333008  0.003058  0.512306  1
  O  O580  1  0.592518  0.249103  0.672467  1
  O  O581  1  0.490419  0.166800  0.511705  1
  O  O582  1  0.144570  0.103425  0.549301  1
  O  O583  1  0.599945  0.152171  0.673353  1
  O  O584  1  0.913181  0.249482  0.548555  1
  O  O585  1  0.352792  0.145204  0.710504  1
  O  O586  1  0.335679  0.251593  0.675721  1
  O  O587  1  0.057646  0.093724  0.548795  1
  O  O588  1  0.499771  0.126581  0.637181  1
  O  O589  1  0.756188  0.121867  0.635027  1
  O  O590  1  0.501577  0.123371  0.687309  1
  O  O591  1  0.001060  0.122890  0.534509  1
  O  O592  1  0.245799  0.125901  0.537855  1
  O  O593  1  0.993857  0.128040  0.587242  1
  O  O594  1  0.649541  0.173900  0.613334  1
  O  O595  1  0.755285  0.167927  0.574323  1
  O  O596  1  0.766815  0.069424  0.573375  1
  O  O597  1  0.834244  0.088506  0.579573  1
  O  O598  1  0.761716  0.321142  0.644020  1
  O  O599  1  0.512461  0.332627  0.709916  1
  O  O600  1  0.666369  0.537859  0.588083  1
  O  O601  1  0.892424  0.560198  0.591507  1
  O  O602  1  0.519390  0.539812  0.667008  1
  O  O603  1  0.652457  0.548115  0.673191  1
  O  O604  1  0.005485  0.541090  0.549661  1
  O  O605  1  0.234736  0.562871  0.555769  1
  O  O606  1  0.839083  0.451178  0.631313  1
  O  O607  1  0.599724  0.439243  0.633224  1
  O  O608  1  0.983019  0.457865  0.555828  1
  O  O609  1  0.854731  0.453530  0.547377  1
  O  O610  1  0.493834  0.459598  0.675198  1
  O  O611  1  0.263735  0.448200  0.668522  1
  O  O612  1  0.988849  0.409303  0.613415  1
  O  O613  1  0.587953  0.502158  0.614867  1
  O  O614  1  0.895514  0.599284  0.614678  1
  O  O615  1  0.442818  0.655728  0.672959  1
  O  O616  1  0.148257  0.354212  0.512121  1
  O  O617  1  0.900125  0.349179  0.548734  1
  O  O618  1  0.432196  0.412398  0.676460  1
  O  O619  1  0.163343  0.497130  0.711143  1
  O  O620  1  0.146454  0.603139  0.550311  1
  O  O621  1  0.593164  0.405818  0.610123  1
  O  O622  1  0.906670  0.500063  0.610369  1
  O  O623  1  0.585748  0.662393  0.678240  1
  O  O624  1  0.843796  0.335990  0.609611  1
  O  O625  1  0.352804  0.650192  0.709703  1
  O  O626  1  0.069361  0.337179  0.546408  1
  O  O627  1  0.350562  0.399417  0.674334  1
  O  O628  1  0.333592  0.503932  0.513506  1
  O  O629  1  0.065912  0.591191  0.547351  1
  O  O630  1  0.502338  0.374374  0.637089  1
  O  O631  1  0.507252  0.627507  0.634556  1
  O  O632  1  0.743849  0.625379  0.637718  1
  O  O633  1  0.508711  0.620521  0.684914  1
  O  O634  1  0.002426  0.373083  0.585107  1
  O  O635  1  0.253971  0.373577  0.684705  1
  O  O636  1  0.497345  0.378025  0.688500  1
  O  O637  1  0.748219  0.374599  0.586814  1
  O  O638  1  0.001103  0.620596  0.535021  1
  O  O639  1  0.248490  0.628778  0.536104  1
  O  O640  1  0.995645  0.624919  0.586778  1
  O  O641  1  0.997701  0.377402  0.535952  1
  O  O642  1  0.734076  0.427278  0.650763  1
  O  O643  1  0.659154  0.414643  0.646086  1
  O  O644  1  0.751144  0.573315  0.577882  1
  O  O645  1  0.846923  0.580792  0.575021  1
  O  O646  1  0.007890  0.586654  0.609651  1
  O  O647  1  0.013426  0.333933  0.710323  1
  O  O648  1  0.488090  0.408523  0.614029  1
  O  O649  1  0.507060  0.585951  0.610376  1
  O  O650  1  0.485988  0.657838  0.512748  1
  O  O651  1  0.662139  0.664832  0.615042  1
  O  O652  1  0.648441  0.794488  0.589798  1
  O  O653  1  0.005162  0.789831  0.570952  1
  O  O654  1  0.231860  0.807558  0.675072  1
  O  O655  1  0.665032  0.799986  0.666313  1
  O  O656  1  0.913302  0.798239  0.568290  1
  O  O657  1  0.519159  0.792565  0.648580  1
  O  O658  1  0.851378  0.704813  0.633262  1
  O  O659  1  0.837304  0.958131  0.635241  1
  O  O660  1  0.606555  0.939197  0.631915  1
  O  O661  1  0.980533  0.960658  0.554128  1
  O  O662  1  0.494449  0.711244  0.652158  1
  O  O663  1  0.262906  0.699147  0.548491  1
  O  O664  1  0.852738  0.950296  0.547814  1
  O  O665  1  0.835688  0.700826  0.555900  1
  O  O666  1  0.588136  0.702734  0.654172  1
  O  O667  1  0.980143  0.708598  0.574367  1
  O  O668  1  0.491053  0.961530  0.674329  1
  O  O669  1  0.259937  0.940381  0.668803  1
  O  O670  1  0.163405  0.000000  0.710901  1
  O  O671  1  0.163288  0.751666  0.546380  1
  O  O672  1  0.149428  0.845827  0.513006  1
  O  O673  1  0.593189  0.753005  0.674921  1
  O  O674  1  0.911603  0.838808  0.544684  1
  O  O675  1  0.433769  0.910381  0.675281  1
  O  O676  1  0.605417  0.899206  0.608343  1
  O  O677  1  0.906723  0.747357  0.548235  1
  O  O678  1  0.338235  0.749094  0.675164  1
  O  O679  1  0.047010  0.851973  0.552367  1
  O  O680  1  0.351015  0.897834  0.673428  1
  O  O681  1  0.500575  0.876452  0.636389  1
  O  O682  1  0.996308  0.869630  0.588624  1
  O  O683  1  0.244663  0.875609  0.688804  1
  O  O684  1  0.497864  0.879495  0.687767  1
  O  O685  1  0.755463  0.874971  0.585639  1
  O  O686  1  0.995491  0.875000  0.536599  1
  O  O687  1  0.590865  0.000000  0.613391  1
  O  O688  1  0.748118  0.927808  0.644949  1
  O  O689  1  0.652568  0.918415  0.648249  1
  O  O690  1  0.734732  0.674059  0.579308  1
  O  O691  1  0.837072  0.836435  0.607741  1
  O  O692  1  0.769074  0.824599  0.642849  1
  O  O693  1  0.913920  0.994768  0.608876  1
  O  O694  1  0.147426  0.292830  0.590306  1
  O  O695  1  0.162229  0.046324  0.591438  1
  O  O696  1  0.401170  0.060228  0.590051  1
  O  O697  1  0.019744  0.041673  0.666361  1
  O  O698  1  0.505490  0.291102  0.570743  1
  O  O699  1  0.733769  0.305098  0.674315  1
  O  O700  1  0.146989  0.046134  0.675056  1
  O  O701  1  0.166307  0.288626  0.667132  1
  O  O702  1  0.392592  0.312592  0.574400  1
  O  O703  1  0.019349  0.290527  0.649209  1
  O  O704  1  0.495412  0.048587  0.549839  1
  O  O705  1  0.731053  0.057089  0.556081  1
  O  O706  1  0.354097  0.203438  0.632656  1
  O  O707  1  0.995633  0.208699  0.651618  1
  O  O708  1  0.762313  0.200825  0.548793  1
  O  O709  1  0.335295  0.212483  0.554592  1
  O  O710  1  0.108512  0.187291  0.648135  1
  O  O711  1  0.478424  0.210833  0.574445  1
  O  O712  1  0.989097  0.165544  0.512166  1
  O  O713  1  0.407543  0.093548  0.613140  1
  O  O714  1  0.934295  0.162214  0.675762  1
  O  O715  1  0.665783  0.248297  0.545753  1
  O  O716  1  0.086643  0.250574  0.674376  1
  O  O717  1  0.646758  0.103159  0.549331  1
  O  O718  1  0.014512  0.086988  0.608652  1
  O  O719  1  0.099378  0.150936  0.673831  1
  O  O720  1  0.412647  0.250832  0.548512  1
  O  O721  1  0.852937  0.144869  0.710068  1
  O  O722  1  0.835124  0.252522  0.676035  1
  O  O723  1  0.560094  0.093949  0.548117  1
  O  O724  1  0.997226  0.126778  0.637583  1
  O  O725  1  0.251648  0.125718  0.636376  1
  O  O726  1  0.001694  0.122003  0.687421  1
  O  O727  1  0.499196  0.125059  0.534713  1
  O  O728  1  0.743781  0.129225  0.538959  1
  O  O729  1  0.497502  0.125868  0.586368  1
  O  O730  1  0.155923  0.167960  0.612880  1
  O  O731  1  0.259800  0.169069  0.575741  1
  O  O732  1  0.260948  0.075539  0.572776  1
  O  O733  1  0.341912  0.074424  0.577540  1
  O  O734  1  0.252057  0.325847  0.645336  1
  O  O735  1  0.834289  0.005409  0.513218  1
  O  O736  1  0.658918  0.000000  0.711600  1
  O  O737  1  0.166949  0.536693  0.588052  1
  O  O738  1  0.399159  0.556356  0.590682  1
  O  O739  1  0.012022  0.542452  0.667900  1
  O  O740  1  0.152904  0.549324  0.673181  1
  O  O741  1  0.501233  0.542447  0.549602  1
  O  O742  1  0.737167  0.560409  0.554833  1
  O  O743  1  0.339372  0.450800  0.631213  1
  O  O744  1  0.096314  0.440821  0.633399  1
  O  O745  1  0.477796  0.460497  0.556111  1
  O  O746  1  0.355116  0.453022  0.546949  1
  O  O747  1  0.996262  0.457294  0.674670  1
  O  O748  1  0.764220  0.448451  0.668593  1
  O  O749  1  0.984317  0.659077  0.512763  1
  O  O750  1  0.086312  0.500949  0.614247  1
  O  O751  1  0.395160  0.599581  0.615102  1
  O  O752  1  0.941856  0.657182  0.673332  1
  O  O753  1  0.647563  0.355322  0.512625  1
  O  O754  1  0.400421  0.349789  0.548929  1
  O  O755  1  0.938591  0.407678  0.674992  1
  O  O756  1  0.662593  0.497239  0.711372  1
  O  O757  1  0.648082  0.600936  0.549584  1
  O  O758  1  0.096590  0.402185  0.609165  1
  O  O759  1  0.408803  0.498941  0.610512  1
  O  O760  1  0.083806  0.663105  0.677700  1
  O  O761  1  0.849814  0.653497  0.710611  1
  O  O762  1  0.561953  0.341131  0.547534  1
  O  O763  1  0.850955  0.398488  0.674459  1
  O  O764  1  0.835811  0.500202  0.512558  1
  O  O765  1  0.564078  0.588633  0.548192  1
  O  O766  1  0.001315  0.373842  0.636661  1
  O  O767  1  0.008229  0.624674  0.634406  1
  O  O768  1  0.246279  0.623210  0.637289  1
  O  O769  1  0.010683  0.617201  0.684526  1
  O  O770  1  0.504003  0.372394  0.585029  1
  O  O771  1  0.753009  0.374176  0.684781  1
  O  O772  1  0.000000  0.376580  0.688134  1
  O  O773  1  0.247803  0.375469  0.586888  1
  O  O774  1  0.500978  0.622534  0.535502  1
  O  O775  1  0.753044  0.624288  0.534478  1
  O  O776  1  0.497974  0.623560  0.586936  1
  O  O777  1  0.500496  0.377151  0.534441  1
  O  O778  1  0.231956  0.428916  0.650997  1
  O  O779  1  0.158576  0.418516  0.645350  1
  O  O780  1  0.252152  0.571747  0.578248  1
  O  O781  1  0.336445  0.586800  0.578643  1
  O  O782  1  0.251245  0.664544  0.574446  1
  O  O783  1  0.343227  0.335303  0.609942  1
  O  O784  1  0.148337  0.791644  0.591040  1
  O  O785  1  0.502802  0.788912  0.572314  1
  O  O786  1  0.734303  0.809120  0.674162  1
  O  O787  1  0.166529  0.795846  0.666147  1
  O  O788  1  0.412206  0.799185  0.569039  1
  O  O789  1  0.006170  0.798140  0.652539  1
  O  O790  1  0.352391  0.704700  0.633374  1
  O  O791  1  0.335664  0.960276  0.634901  1
  O  O792  1  0.112001  0.937131  0.630913  1
  O  O793  1  0.496365  0.954727  0.554019  1
  O  O794  1  0.994977  0.710090  0.651447  1
  O  O795  1  0.764330  0.691760  0.548889  1
  O  O796  1  0.348208  0.953242  0.549023  1
  O  O797  1  0.335625  0.704297  0.556051  1
  O  O798  1  0.100328  0.692827  0.650193  1
  O  O799  1  0.480246  0.706602  0.574278  1
  O  O800  1  0.990537  0.962449  0.673901  1
  O  O801  1  0.753806  0.941725  0.669838  1
  O  O802  1  0.660953  0.750567  0.547952  1
  O  O803  1  0.652685  0.842832  0.511986  1
  O  O804  1  0.091839  0.753080  0.672997  1
  O  O805  1  0.416689  0.839642  0.544585  1
  O  O806  1  0.925532  0.915134  0.677625  1
  O  O807  1  0.109331  0.896514  0.607880  1
  O  O808  1  0.517490  0.843074  0.709680  1
  O  O809  1  0.411395  0.747977  0.547253  1
  O  O810  1  0.017872  0.836695  0.708788  1
  O  O811  1  0.839986  0.747076  0.674311  1
  O  O812  1  0.555089  0.841957  0.550105  1
  O  O813  1  0.846124  0.904380  0.673948  1
  O  O814  1  0.495156  0.912848  0.612287  1
  O  O815  1  0.003586  0.875415  0.637163  1
  O  O816  1  0.493330  0.872897  0.588293  1
  O  O817  1  0.747650  0.874239  0.688736  1
  O  O818  1  -0.000000  0.880854  0.687494  1
  O  O819  1  0.258491  0.875003  0.584705  1
  O  O820  1  0.487874  0.886403  0.538641  1
  O  O821  1  0.150522  0.678086  0.614656  1
  O  O822  1  0.250358  0.925642  0.644842  1
  O  O823  1  0.150465  0.919796  0.649119  1
  O  O824  1  0.996326  0.910301  0.613060  1
  O  O825  1  0.335413  0.833744  0.608557  1
  O  O826  1  0.263950  0.826005  0.644478  1
  O  O827  1  0.092381  0.998955  0.613041  1
  O  O828  1  0.411022  0.998144  0.608746  1
  O  O829  1  0.333008  0.003058  0.714913  1
  O  O830  1  0.490419  0.166800  0.714312  1
  O  O831  1  0.148257  0.354212  0.714728  1
  O  O832  1  0.333592  0.503932  0.716112  1
  O  O833  1  0.485988  0.657838  0.715355  1
  O  O834  1  0.149428  0.845827  0.715613  1
  O  O835  1  0.989097  0.165544  0.714772  1
  O  O836  1  0.834289  0.005409  0.715824  1
  O  O837  1  0.984317  0.659077  0.715369  1
  O  O838  1  0.647563  0.355322  0.715232  1
  O  O839  1  0.835811  0.500202  0.715165  1
  O  O840  1  0.652685  0.842832  0.714593  1
  Si  Si841  1  0.751156  0.125088  0.180014  1
  Si  Si842  1  0.751706  0.279028  0.249998  1
  Si  Si843  1  0.566471  0.065024  0.207735  1
  Si  Si844  1  0.871168  0.064936  0.206298  1
  Si  Si845  1  0.451377  0.118934  0.280103  1
  Si  Si846  1  0.061988  0.312199  0.156918  1
  Si  Si847  1  0.243459  0.321637  0.282178  1
  Si  Si848  1  0.558607  0.123369  0.282277  1
  Si  Si849  1  0.565381  0.313277  0.279445  1
  Si  Si850  1  0.862612  0.322150  0.159403  1
  Si  Si851  1  0.056621  0.065259  0.129631  1
  Si  Si852  1  0.238872  0.072078  0.133147  1
  Si  Si853  1  0.944075  0.125782  0.204771  1
  Si  Si854  1  0.440410  0.186888  0.255046  1
  Si  Si855  1  0.258020  0.176925  0.129958  1
  Si  Si856  1  0.935953  0.186590  0.132260  1
  Si  Si857  1  0.641724  0.176561  0.251606  1
  Si  Si858  1  0.042942  0.133534  0.159925  1
  Si  Si859  1  0.565642  0.216643  0.236316  1
  Si  Si860  1  0.750200  0.219848  0.161937  1
  Si  Si861  1  0.933130  0.285937  0.176141  1
  Si  Si862  1  0.754141  0.028649  0.161581  1
  Si  Si863  1  0.933913  0.034554  0.162185  1
  Si  Si864  1  0.749464  0.374885  0.232452  1
  Si  Si865  1  0.748588  0.623396  0.181635  1
  Si  Si866  1  0.556301  0.371739  0.208179  1
  Si  Si867  1  0.566015  0.563936  0.207178  1
  Si  Si868  1  0.858499  0.571633  0.208776  1
  Si  Si869  1  0.455445  0.617377  0.278662  1
  Si  Si870  1  0.556504  0.623121  0.282933  1
  Si  Si871  1  0.450114  0.370639  0.254373  1
  Si  Si872  1  0.058687  0.563432  0.129872  1
  Si  Si873  1  0.240506  0.575551  0.133583  1
  Si  Si874  1  0.938804  0.628120  0.205460  1
  Si  Si875  1  0.935571  0.433073  0.204455  1
  Si  Si876  1  0.633384  0.429932  0.205609  1
  Si  Si877  1  0.049640  0.381019  0.132221  1
  Si  Si878  1  0.943046  0.377624  0.129571  1
  Si  Si879  1  0.047853  0.630708  0.159496  1
  Si  Si880  1  0.438492  0.438169  0.284140  1
  Si  Si881  1  0.257602  0.429098  0.279690  1
  Si  Si882  1  0.747795  0.469791  0.250872  1
  Si  Si883  1  0.565685  0.464679  0.250422  1
  Si  Si884  1  0.752311  0.530179  0.161496  1
  Si  Si885  1  0.934490  0.533642  0.162576  1
  Si  Si886  1  0.751947  0.876626  0.230698  1
  Si  Si887  1  0.754854  0.783498  0.249199  1
  Si  Si888  1  0.936698  0.781884  0.174354  1
  Si  Si889  1  0.561284  0.871521  0.206920  1
  Si  Si890  1  0.053388  0.816418  0.159362  1
  Si  Si891  1  0.240955  0.820040  0.283680  1
  Si  Si892  1  0.566844  0.819625  0.279601  1
  Si  Si893  1  0.870327  0.815295  0.156597  1
  Si  Si894  1  0.450319  0.870526  0.253208  1
  Si  Si895  1  0.937321  0.932484  0.205833  1
  Si  Si896  1  0.640874  0.927815  0.204158  1
  Si  Si897  1  0.043738  0.882114  0.133592  1
  Si  Si898  1  0.445285  0.685428  0.253449  1
  Si  Si899  1  0.257272  0.681724  0.129051  1
  Si  Si900  1  0.946157  0.874501  0.128339  1
  Si  Si901  1  0.933608  0.681133  0.132558  1
  Si  Si902  1  0.629029  0.685591  0.255982  1
  Si  Si903  1  0.438954  0.937841  0.282990  1
  Si  Si904  1  0.255000  0.927568  0.280403  1
  Si  Si905  1  0.563418  0.719065  0.237996  1
  Si  Si906  1  0.746615  0.970093  0.251305  1
  Si  Si907  1  0.564652  0.966592  0.250380  1
  Si  Si908  1  0.745959  0.716378  0.162995  1
  Si  Si909  1  0.254670  0.121837  0.179513  1
  Si  Si910  1  0.436271  0.033375  0.162305  1
  Si  Si911  1  0.251689  0.279720  0.249759  1
  Si  Si912  1  0.250223  0.031129  0.161775  1
  Si  Si913  1  0.065089  0.065119  0.207937  1
  Si  Si914  1  0.366549  0.070046  0.207390  1
  Si  Si915  1  0.951957  0.118658  0.279825  1
  Si  Si916  1  0.559243  0.314096  0.157139  1
  Si  Si917  1  0.742595  0.322216  0.282511  1
  Si  Si918  1  0.058059  0.122004  0.282650  1
  Si  Si919  1  0.065566  0.312823  0.279913  1
  Si  Si920  1  0.362110  0.323048  0.159592  1
  Si  Si921  1  0.553775  0.067723  0.130095  1
  Si  Si922  1  0.738613  0.074414  0.134062  1
  Si  Si923  1  0.445558  0.126749  0.204507  1
  Si  Si924  1  0.940328  0.187029  0.254956  1
  Si  Si925  1  0.756416  0.179907  0.129833  1
  Si  Si926  1  0.435637  0.188184  0.131992  1
  Si  Si927  1  0.137483  0.178057  0.252890  1
  Si  Si928  1  0.546151  0.132550  0.159310  1
  Si  Si929  1  0.067762  0.214688  0.235938  1
  Si  Si930  1  0.251887  0.217822  0.162007  1
  Si  Si931  1  0.432107  0.286002  0.176484  1
  Si  Si932  1  0.431267  0.535195  0.163283  1
  Si  Si933  1  0.246142  0.377352  0.232817  1
  Si  Si934  1  0.247699  0.625054  0.181281  1
  Si  Si935  1  0.057006  0.370303  0.207540  1
  Si  Si936  1  0.065836  0.562993  0.206808  1
  Si  Si937  1  0.360961  0.570048  0.208614  1
  Si  Si938  1  0.953043  0.618458  0.279141  1
  Si  Si939  1  0.056058  0.623457  0.282784  1
  Si  Si940  1  0.952413  0.368436  0.253564  1
  Si  Si941  1  0.557375  0.563275  0.130143  1
  Si  Si942  1  0.743142  0.572137  0.132545  1
  Si  Si943  1  0.439273  0.627685  0.205809  1
  Si  Si944  1  0.436630  0.432052  0.204561  1
  Si  Si945  1  0.133070  0.429138  0.205274  1
  Si  Si946  1  0.547022  0.382884  0.132360  1
  Si  Si947  1  0.443770  0.376882  0.128979  1
  Si  Si948  1  0.548219  0.628910  0.159573  1
  Si  Si949  1  0.942139  0.434827  0.283225  1
  Si  Si950  1  0.757465  0.429225  0.279844  1
  Si  Si951  1  0.247129  0.470436  0.250905  1
  Si  Si952  1  0.063327  0.466051  0.250412  1
  Si  Si953  1  0.252276  0.529958  0.161726  1
  Si  Si954  1  0.063144  0.869420  0.207527  1
  Si  Si955  1  0.553455  0.814278  0.159474  1
  Si  Si956  1  0.743195  0.819128  0.283019  1
  Si  Si957  1  0.067751  0.817013  0.278712  1
  Si  Si958  1  0.373486  0.816017  0.156226  1
  Si  Si959  1  0.944745  0.874232  0.254997  1
  Si  Si960  1  0.434948  0.935386  0.205429  1
  Si  Si961  1  0.144175  0.926408  0.203471  1
  Si  Si962  1  0.548284  0.880587  0.133354  1
  Si  Si963  1  0.946177  0.683787  0.253065  1
  Si  Si964  1  0.757308  0.679500  0.129340  1
  Si  Si965  1  0.444471  0.879427  0.129346  1
  Si  Si966  1  0.435064  0.682508  0.132564  1
  Si  Si967  1  0.131509  0.682787  0.254409  1
  Si  Si968  1  0.937408  0.940408  0.283711  1
  Si  Si969  1  0.752021  0.929264  0.280956  1
  Si  Si970  1  0.060798  0.720814  0.237747  1
  Si  Si971  1  0.248238  0.969226  0.251012  1
  Si  Si972  1  0.065902  0.966305  0.250003  1
  Si  Si973  1  0.249306  0.716400  0.162082  1
  Si  Si974  1  0.435177  0.780781  0.175130  1
  Si  Si975  1  0.253271  0.782509  0.249884  1
  Si  Si976  1  0.250210  0.876175  0.231527  1
  Si  Si977  1  0.751156  0.125088  0.382621  1
  Si  Si978  1  0.751706  0.279028  0.452604  1
  Si  Si979  1  0.566471  0.065024  0.410342  1
  Si  Si980  1  0.871168  0.064936  0.408905  1
  Si  Si981  1  0.451377  0.118934  0.482709  1
  Si  Si982  1  0.061988  0.312199  0.359524  1
  Si  Si983  1  0.243459  0.321637  0.484785  1
  Si  Si984  1  0.558607  0.123369  0.484883  1
  Si  Si985  1  0.565381  0.313277  0.482051  1
  Si  Si986  1  0.862612  0.322150  0.362009  1
  Si  Si987  1  0.056621  0.065259  0.332237  1
  Si  Si988  1  0.238872  0.072078  0.335754  1
  Si  Si989  1  0.944075  0.125782  0.407378  1
  Si  Si990  1  0.440410  0.186888  0.457652  1
  Si  Si991  1  0.258020  0.176925  0.332564  1
  Si  Si992  1  0.935953  0.186590  0.334867  1
  Si  Si993  1  0.641724  0.176561  0.454212  1
  Si  Si994  1  0.042942  0.133534  0.362532  1
  Si  Si995  1  0.565642  0.216643  0.438922  1
  Si  Si996  1  0.750200  0.219848  0.364543  1
  Si  Si997  1  0.933130  0.285937  0.378747  1
  Si  Si998  1  0.754141  0.028649  0.364187  1
  Si  Si999  1  0.933913  0.034554  0.364792  1
  Si  Si1000  1  0.749464  0.374885  0.435058  1
  Si  Si1001  1  0.748588  0.623396  0.384242  1
  Si  Si1002  1  0.556301  0.371739  0.410786  1
  Si  Si1003  1  0.566015  0.563936  0.409785  1
  Si  Si1004  1  0.858499  0.571633  0.411383  1
  Si  Si1005  1  0.455445  0.617377  0.481268  1
  Si  Si1006  1  0.556504  0.623121  0.485540  1
  Si  Si1007  1  0.450114  0.370639  0.456980  1
  Si  Si1008  1  0.058687  0.563432  0.332479  1
  Si  Si1009  1  0.240506  0.575551  0.336189  1
  Si  Si1010  1  0.938804  0.628120  0.408067  1
  Si  Si1011  1  0.935571  0.433073  0.407061  1
  Si  Si1012  1  0.633384  0.429932  0.408215  1
  Si  Si1013  1  0.049640  0.381019  0.334827  1
  Si  Si1014  1  0.943046  0.377624  0.332178  1
  Si  Si1015  1  0.047853  0.630708  0.362102  1
  Si  Si1016  1  0.438492  0.438169  0.486747  1
  Si  Si1017  1  0.257602  0.429098  0.482297  1
  Si  Si1018  1  0.747795  0.469791  0.453479  1
  Si  Si1019  1  0.565685  0.464679  0.453029  1
  Si  Si1020  1  0.752311  0.530179  0.364103  1
  Si  Si1021  1  0.934490  0.533642  0.365182  1
  Si  Si1022  1  0.751947  0.876626  0.433305  1
  Si  Si1023  1  0.754854  0.783498  0.451805  1
  Si  Si1024  1  0.936698  0.781884  0.376960  1
  Si  Si1025  1  0.561284  0.871521  0.409527  1
  Si  Si1026  1  0.053388  0.816418  0.361968  1
  Si  Si1027  1  0.240955  0.820040  0.486286  1
  Si  Si1028  1  0.566844  0.819625  0.482207  1
  Si  Si1029  1  0.870327  0.815295  0.359203  1
  Si  Si1030  1  0.450319  0.870526  0.455814  1
  Si  Si1031  1  0.937321  0.932484  0.408439  1
  Si  Si1032  1  0.640874  0.927815  0.406765  1
  Si  Si1033  1  0.043738  0.882114  0.336199  1
  Si  Si1034  1  0.445285  0.685428  0.456056  1
  Si  Si1035  1  0.257272  0.681724  0.331657  1
  Si  Si1036  1  0.946157  0.874501  0.330945  1
  Si  Si1037  1  0.933608  0.681133  0.335165  1
  Si  Si1038  1  0.629029  0.685591  0.458589  1
  Si  Si1039  1  0.438954  0.937841  0.485597  1
  Si  Si1040  1  0.255000  0.927568  0.483009  1
  Si  Si1041  1  0.563418  0.719065  0.440603  1
  Si  Si1042  1  0.746615  0.970093  0.453912  1
  Si  Si1043  1  0.564652  0.966592  0.452987  1
  Si  Si1044  1  0.745959  0.716378  0.365601  1
  Si  Si1045  1  0.254670  0.121837  0.382120  1
  Si  Si1046  1  0.436271  0.033375  0.364912  1
  Si  Si1047  1  0.251689  0.279720  0.452365  1
  Si  Si1048  1  0.250223  0.031129  0.364382  1
  Si  Si1049  1  0.065089  0.065119  0.410543  1
  Si  Si1050  1  0.366549  0.070046  0.409997  1
  Si  Si1051  1  0.951957  0.118658  0.482431  1
  Si  Si1052  1  0.559243  0.314096  0.359746  1
  Si  Si1053  1  0.742595  0.322216  0.485117  1
  Si  Si1054  1  0.058059  0.122004  0.485256  1
  Si  Si1055  1  0.065566  0.312823  0.482519  1
  Si  Si1056  1  0.362110  0.323048  0.362198  1
  Si  Si1057  1  0.553775  0.067723  0.332702  1
  Si  Si1058  1  0.738613  0.074414  0.336668  1
  Si  Si1059  1  0.445558  0.126749  0.407114  1
  Si  Si1060  1  0.940328  0.187029  0.457563  1
  Si  Si1061  1  0.756416  0.179907  0.332440  1
  Si  Si1062  1  0.435637  0.188184  0.334599  1
  Si  Si1063  1  0.137483  0.178057  0.455497  1
  Si  Si1064  1  0.546151  0.132550  0.361917  1
  Si  Si1065  1  0.067762  0.214688  0.438545  1
  Si  Si1066  1  0.251887  0.217822  0.364614  1
  Si  Si1067  1  0.432107  0.286002  0.379091  1
  Si  Si1068  1  0.431267  0.535195  0.365890  1
  Si  Si1069  1  0.246142  0.377352  0.435423  1
  Si  Si1070  1  0.247699  0.625054  0.383888  1
  Si  Si1071  1  0.057006  0.370303  0.410147  1
  Si  Si1072  1  0.065836  0.562993  0.409415  1
  Si  Si1073  1  0.360961  0.570048  0.411221  1
  Si  Si1074  1  0.953043  0.618458  0.481748  1
  Si  Si1075  1  0.056058  0.623457  0.485390  1
  Si  Si1076  1  0.952413  0.368436  0.456170  1
  Si  Si1077  1  0.557375  0.563275  0.332749  1
  Si  Si1078  1  0.743142  0.572137  0.335152  1
  Si  Si1079  1  0.439273  0.627685  0.408415  1
  Si  Si1080  1  0.436630  0.432052  0.407168  1
  Si  Si1081  1  0.133070  0.429138  0.407881  1
  Si  Si1082  1  0.547022  0.382884  0.334966  1
  Si  Si1083  1  0.443770  0.376882  0.331585  1
  Si  Si1084  1  0.548219  0.628910  0.362179  1
  Si  Si1085  1  0.942139  0.434827  0.485832  1
  Si  Si1086  1  0.757465  0.429225  0.482450  1
  Si  Si1087  1  0.247129  0.470436  0.453511  1
  Si  Si1088  1  0.063327  0.466051  0.453019  1
  Si  Si1089  1  0.252276  0.529958  0.364333  1
  Si  Si1090  1  0.063144  0.869420  0.410134  1
  Si  Si1091  1  0.553455  0.814278  0.362081  1
  Si  Si1092  1  0.743195  0.819128  0.485626  1
  Si  Si1093  1  0.067751  0.817013  0.481319  1
  Si  Si1094  1  0.373486  0.816017  0.358833  1
  Si  Si1095  1  0.944745  0.874232  0.457603  1
  Si  Si1096  1  0.434948  0.935386  0.408036  1
  Si  Si1097  1  0.144175  0.926408  0.406078  1
  Si  Si1098  1  0.548284  0.880587  0.335961  1
  Si  Si1099  1  0.946177  0.683787  0.455672  1
  Si  Si1100  1  0.757308  0.679500  0.331946  1
  Si  Si1101  1  0.444471  0.879427  0.331953  1
  Si  Si1102  1  0.435064  0.682508  0.335171  1
  Si  Si1103  1  0.131509  0.682787  0.457016  1
  Si  Si1104  1  0.937408  0.940408  0.486317  1
  Si  Si1105  1  0.752021  0.929264  0.483563  1
  Si  Si1106  1  0.060798  0.720814  0.440354  1
  Si  Si1107  1  0.248238  0.969226  0.453618  1
  Si  Si1108  1  0.065902  0.966305  0.452610  1
  Si  Si1109  1  0.249306  0.716400  0.364689  1
  Si  Si1110  1  0.435177  0.780781  0.377737  1
  Si  Si1111  1  0.253271  0.782509  0.452491  1
  Si  Si1112  1  0.250210  0.876175  0.434134  1
  Si  Si1113  1  0.751156  0.125088  0.585227  1
  Si  Si1114  1  0.751706  0.279028  0.655211  1
  Si  Si1115  1  0.566471  0.065024  0.612948  1
  Si  Si1116  1  0.871168  0.064936  0.611511  1
  Si  Si1117  1  0.451377  0.118934  0.685316  1
  Si  Si1118  1  0.061988  0.312199  0.562131  1
  Si  Si1119  1  0.243459  0.321637  0.687391  1
  Si  Si1120  1  0.558607  0.123369  0.687490  1
  Si  Si1121  1  0.565381  0.313277  0.684658  1
  Si  Si1122  1  0.862612  0.322150  0.564616  1
  Si  Si1123  1  0.056621  0.065259  0.534844  1
  Si  Si1124  1  0.238872  0.072078  0.538360  1
  Si  Si1125  1  0.944075  0.125782  0.609984  1
  Si  Si1126  1  0.440410  0.186888  0.660259  1
  Si  Si1127  1  0.258020  0.176925  0.535171  1
  Si  Si1128  1  0.935953  0.186590  0.537473  1
  Si  Si1129  1  0.641724  0.176561  0.656819  1
  Si  Si1130  1  0.042942  0.133534  0.565138  1
  Si  Si1131  1  0.565642  0.216643  0.641529  1
  Si  Si1132  1  0.750200  0.219848  0.567150  1
  Si  Si1133  1  0.933130  0.285937  0.581354  1
  Si  Si1134  1  0.754141  0.028649  0.566794  1
  Si  Si1135  1  0.933913  0.034554  0.567398  1
  Si  Si1136  1  0.749464  0.374885  0.637665  1
  Si  Si1137  1  0.748588  0.623396  0.586848  1
  Si  Si1138  1  0.556301  0.371739  0.613392  1
  Si  Si1139  1  0.566015  0.563936  0.612391  1
  Si  Si1140  1  0.858499  0.571633  0.613989  1
  Si  Si1141  1  0.455445  0.617377  0.683875  1
  Si  Si1142  1  0.556504  0.623121  0.688146  1
  Si  Si1143  1  0.450114  0.370639  0.659586  1
  Si  Si1144  1  0.058687  0.563432  0.535085  1
  Si  Si1145  1  0.240506  0.575551  0.538796  1
  Si  Si1146  1  0.938804  0.628120  0.610673  1
  Si  Si1147  1  0.935571  0.433073  0.609668  1
  Si  Si1148  1  0.633384  0.429932  0.610822  1
  Si  Si1149  1  0.049640  0.381019  0.537434  1
  Si  Si1150  1  0.943046  0.377624  0.534784  1
  Si  Si1151  1  0.047853  0.630708  0.564709  1
  Si  Si1152  1  0.438492  0.438169  0.689353  1
  Si  Si1153  1  0.257602  0.429098  0.684903  1
  Si  Si1154  1  0.747795  0.469791  0.656085  1
  Si  Si1155  1  0.565685  0.464679  0.655635  1
  Si  Si1156  1  0.752311  0.530179  0.566709  1
  Si  Si1157  1  0.934490  0.533642  0.567789  1
  Si  Si1158  1  0.751947  0.876626  0.635911  1
  Si  Si1159  1  0.754854  0.783498  0.654412  1
  Si  Si1160  1  0.936698  0.781884  0.579567  1
  Si  Si1161  1  0.561284  0.871521  0.612133  1
  Si  Si1162  1  0.053388  0.816418  0.564575  1
  Si  Si1163  1  0.240955  0.820040  0.688893  1
  Si  Si1164  1  0.566844  0.819625  0.684814  1
  Si  Si1165  1  0.870327  0.815295  0.561810  1
  Si  Si1166  1  0.450319  0.870526  0.658421  1
  Si  Si1167  1  0.937321  0.932484  0.611046  1
  Si  Si1168  1  0.640874  0.927815  0.609371  1
  Si  Si1169  1  0.043738  0.882114  0.538805  1
  Si  Si1170  1  0.445285  0.685428  0.658662  1
  Si  Si1171  1  0.257272  0.681724  0.534264  1
  Si  Si1172  1  0.946157  0.874501  0.533552  1
  Si  Si1173  1  0.933608  0.681133  0.537771  1
  Si  Si1174  1  0.629029  0.685591  0.661195  1
  Si  Si1175  1  0.438954  0.937841  0.688203  1
  Si  Si1176  1  0.255000  0.927568  0.685616  1
  Si  Si1177  1  0.563418  0.719065  0.643209  1
  Si  Si1178  1  0.746615  0.970093  0.656518  1
  Si  Si1179  1  0.564652  0.966592  0.655593  1
  Si  Si1180  1  0.745959  0.716378  0.568208  1
  Si  Si1181  1  0.254670  0.121837  0.584726  1
  Si  Si1182  1  0.436271  0.033375  0.567518  1
  Si  Si1183  1  0.251689  0.279720  0.654972  1
  Si  Si1184  1  0.250223  0.031129  0.566988  1
  Si  Si1185  1  0.065089  0.065119  0.613150  1
  Si  Si1186  1  0.366549  0.070046  0.612604  1
  Si  Si1187  1  0.951957  0.118658  0.685038  1
  Si  Si1188  1  0.559243  0.314096  0.562352  1
  Si  Si1189  1  0.742595  0.322216  0.687724  1
  Si  Si1190  1  0.058059  0.122004  0.687863  1
  Si  Si1191  1  0.065566  0.312823  0.685126  1
  Si  Si1192  1  0.362110  0.323048  0.564805  1
  Si  Si1193  1  0.553775  0.067723  0.535308  1
  Si  Si1194  1  0.738613  0.074414  0.539275  1
  Si  Si1195  1  0.445558  0.126749  0.609720  1
  Si  Si1196  1  0.940328  0.187029  0.660169  1
  Si  Si1197  1  0.756416  0.179907  0.535046  1
  Si  Si1198  1  0.435637  0.188184  0.537205  1
  Si  Si1199  1  0.137483  0.178057  0.658103  1
  Si  Si1200  1  0.546151  0.132550  0.564523  1
  Si  Si1201  1  0.067762  0.214688  0.641151  1
  Si  Si1202  1  0.251887  0.217822  0.567220  1
  Si  Si1203  1  0.432107  0.286002  0.581697  1
  Si  Si1204  1  0.431267  0.535195  0.568496  1
  Si  Si1205  1  0.246142  0.377352  0.638030  1
  Si  Si1206  1  0.247699  0.625054  0.586494  1
  Si  Si1207  1  0.057006  0.370303  0.612753  1
  Si  Si1208  1  0.065836  0.562993  0.612021  1
  Si  Si1209  1  0.360961  0.570048  0.613827  1
  Si  Si1210  1  0.953043  0.618458  0.684354  1
  Si  Si1211  1  0.056058  0.623457  0.687997  1
  Si  Si1212  1  0.952413  0.368436  0.658777  1
  Si  Si1213  1  0.557375  0.563275  0.535356  1
  Si  Si1214  1  0.743142  0.572137  0.537758  1
  Si  Si1215  1  0.439273  0.627685  0.611022  1
  Si  Si1216  1  0.436630  0.432052  0.609774  1
  Si  Si1217  1  0.133070  0.429138  0.610487  1
  Si  Si1218  1  0.547022  0.382884  0.537573  1
  Si  Si1219  1  0.443770  0.376882  0.534192  1
  Si  Si1220  1  0.548219  0.628910  0.564786  1
  Si  Si1221  1  0.942139  0.434827  0.688438  1
  Si  Si1222  1  0.757465  0.429225  0.685057  1
  Si  Si1223  1  0.247129  0.470436  0.656118  1
  Si  Si1224  1  0.063327  0.466051  0.655625  1
  Si  Si1225  1  0.252276  0.529958  0.566939  1
  Si  Si1226  1  0.063144  0.869420  0.612740  1
  Si  Si1227  1  0.553455  0.814278  0.564687  1
  Si  Si1228  1  0.743195  0.819128  0.688232  1
  Si  Si1229  1  0.067751  0.817013  0.683925  1
  Si  Si1230  1  0.373486  0.816017  0.561439  1
  Si  Si1231  1  0.944745  0.874232  0.660210  1
  Si  Si1232  1  0.434948  0.935386  0.610642  1
  Si  Si1233  1  0.144175  0.926408  0.608684  1
  Si  Si1234  1  0.548284  0.880587  0.538567  1
  Si  Si1235  1  0.946177  0.683787  0.658279  1
  Si  Si1236  1  0.757308  0.679500  0.534553  1
  Si  Si1237  1  0.444471  0.879427  0.534559  1
  Si  Si1238  1  0.435064  0.682508  0.537777  1
  Si  Si1239  1  0.131509  0.682787  0.659622  1
  Si  Si1240  1  0.937408  0.940408  0.688924  1
  Si  Si1241  1  0.752021  0.929264  0.686169  1
  Si  Si1242  1  0.060798  0.720814  0.642960  1
  Si  Si1243  1  0.248238  0.969226  0.656225  1
  Si  Si1244  1  0.065902  0.966305  0.655217  1
  Si  Si1245  1  0.249306  0.716400  0.567295  1
  Si  Si1246  1  0.435177  0.780781  0.580343  1
  Si  Si1247  1  0.253271  0.782509  0.655097  1
  Si  Si1248  1  0.250210  0.876175  0.636740  1
  H  H1249  1  0.352792  0.145204  0.093176  1
  H  H1250  1  0.512461  0.332627  0.092588  1
  H  H1251  1  0.163343  0.497130  0.093815  1
  H  H1252  1  0.352804  0.650192  0.092375  1
  H  H1253  1  0.013426  0.333933  0.092995  1
  H  H1254  1  0.163405  0.000000  0.093573  1
  H  H1255  1  0.852937  0.144869  0.092740  1
  H  H1256  1  0.658918  0.000000  0.094271  1
  H  H1257  1  0.662593  0.497239  0.094043  1
  H  H1258  1  0.849814  0.653497  0.093283  1
  H  H1259  1  0.517490  0.843074  0.092351  1
  H  H1260  1  0.017872  0.836695  0.091460  1
  H  H1261  1  0.333008  0.003058  0.097584  1
  H  H1262  1  0.490419  0.166800  0.096983  1
  H  H1263  1  0.148257  0.354212  0.097399  1
  H  H1264  1  0.333592  0.503932  0.098784  1
  H  H1265  1  0.485988  0.657838  0.098027  1
  H  H1266  1  0.149428  0.845827  0.098284  1
  H  H1267  1  0.989097  0.165544  0.097444  1
  H  H1268  1  0.834289  0.005409  0.098496  1
  H  H1269  1  0.984317  0.659077  0.098041  1
  H  H1270  1  0.647563  0.355322  0.097904  1
  H  H1271  1  0.835811  0.500202  0.097836  1
  H  H1272  1  0.652685  0.842832  0.097264  1
  H  H1273  1  0.352792  0.145204  0.720013  1
  H  H1274  1  0.512461  0.332627  0.719425  1
  H  H1275  1  0.163343  0.497130  0.720652  1
  H  H1276  1  0.352804  0.650192  0.719212  1
  H  H1277  1  0.013426  0.333933  0.719832  1
  H  H1278  1  0.163405  0.000000  0.720410  1
  H  H1279  1  0.852937  0.144869  0.719577  1
  H  H1280  1  0.658918  0.000000  0.721108  1
  H  H1281  1  0.662593  0.497239  0.720880  1
  H  H1282  1  0.849814  0.653497  0.720120  1
  H  H1283  1  0.517490  0.843074  0.719188  1
  H  H1284  1  0.017872  0.836695  0.718297  1
  H  H1285  1  0.333008  0.003058  0.724421  1
  H  H1286  1  0.490419  0.166800  0.723820  1
  H  H1287  1  0.148257  0.354212  0.724236  1
  H  H1288  1  0.333592  0.503932  0.725621  1
  H  H1289  1  0.485988  0.657838  0.724864  1
  H  H1290  1  0.149428  0.845827  0.725121  1
  H  H1291  1  0.989097  0.165544  0.724281  1
  H  H1292  1  0.834289  0.005409  0.725333  1
  H  H1293  1  0.984317  0.659077  0.724878  1
  H  H1294  1  0.647563  0.355322  0.724741  1
  H  H1295  1  0.835811  0.500202  0.724673  1
  H  H1296  1  0.652685  0.842832  0.724101  1
