# generated using pymatgen
data_Si42H2O85
_symmetry_space_group_name_H-M   'P 1'
_cell_length_a   18.24638661
_cell_length_b   18.24573394
_cell_length_c   82.57473934
_cell_angle_alpha   90.00000000
_cell_angle_beta   90.00000000
_cell_angle_gamma   90.00000000
_symmetry_Int_Tables_number   1
_chemical_formula_structural   Si42H2O85
_chemical_formula_sum   'Si336 H16 O680'
_cell_volume   27490.6761486
_cell_formula_units_Z   8
loop_
 _symmetry_equiv_pos_site_id
 _symmetry_equiv_pos_as_xyz
  1  'x, y, z'
loop_
 _atom_site_type_symbol
 _atom_site_label
 _atom_site_symmetry_multiplicity
 _atom_site_fract_x
 _atom_site_fract_y
 _atom_site_fract_z
 _atom_site_occupancy
  O  O1  1  0.876801  0.258297  0.120400  1
  O  O2  1  0.741746  0.123221  0.120400  1
  O  O3  1  0.241741  0.376719  0.145169  1
  O  O4  1  0.376801  0.241644  0.145168  1
  O  O5  1  0.949756  0.242138  0.094271  1
  O  O6  1  0.757902  0.050272  0.094270  1
  O  O7  1  0.826382  0.314704  0.094698  1
  O  O8  1  0.685331  0.173641  0.094698  1
  O  O9  1  0.822708  0.177325  0.098913  1
  O  O10  1  0.951697  0.243514  0.145862  1
  O  O11  1  0.756522  0.048329  0.145863  1
  O  O12  1  0.256522  0.451615  0.119706  1
  O  O13  1  0.451695  0.256433  0.119705  1
  O  O14  1  0.825452  0.313802  0.146059  1
  O  O15  1  0.686236  0.174567  0.146059  1
  O  O16  1  0.186236  0.325378  0.119509  1
  O  O17  1  0.325448  0.186144  0.119508  1
  O  O18  1  0.824279  0.175754  0.141587  1
  O  O19  1  0.324278  0.324192  0.123982  1
  O  O20  1  0.088755  0.253043  0.101808  1
  O  O21  1  0.253094  0.088672  0.101809  1
  O  O22  1  0.045524  0.230840  0.071452  1
  O  O23  1  0.034784  0.134562  0.093505  1
  O  O24  1  0.134597  0.034752  0.093500  1
  O  O25  1  0.188088  0.188015  0.118653  1
  O  O26  1  0.688090  0.311929  0.146914  1
  O  O27  1  0.081674  0.252318  0.132656  1
  O  O28  1  0.252373  0.081589  0.132656  1
  O  O29  1  0.752374  0.418356  0.132912  1
  O  O30  1  0.581674  0.247626  0.132912  1
  O  O31  1  0.038041  0.136414  0.145129  1
  O  O32  1  0.136458  0.038007  0.145133  1
  O  O33  1  0.636458  0.461938  0.120436  1
  O  O34  1  0.538042  0.363530  0.120439  1
  O  O35  1  0.746008  0.427520  0.102235  1
  O  O36  1  0.572507  0.254004  0.102235  1
  O  O37  1  0.065243  0.065178  0.119444  1
  O  O38  1  0.565245  0.434761  0.146125  1
  O  O39  1  0.690707  0.309317  0.092459  1
  O  O40  1  0.618354  0.239487  0.071451  1
  O  O41  1  0.230901  0.045440  0.071452  1
  O  O42  1  0.760529  0.381675  0.071451  1
  O  O43  1  0.500020  0.499975  0.123523  1
  O  O44  1  0.257915  0.449678  0.216939  1
  O  O45  1  0.449771  0.257820  0.216937  1
  O  O46  1  0.257904  0.449669  0.171298  1
  O  O47  1  0.449758  0.257807  0.171296  1
  O  O48  1  0.185346  0.326308  0.217361  1
  O  O49  1  0.326397  0.185251  0.217362  1
  O  O50  1  0.185333  0.326302  0.170871  1
  O  O51  1  0.326384  0.185239  0.170870  1
  O  O52  1  0.322722  0.322626  0.221580  1
  O  O53  1  0.322710  0.322617  0.166655  1
  O  O54  1  0.753119  0.411263  0.224473  1
  O  O55  1  0.588772  0.246899  0.224472  1
  O  O56  1  0.753099  0.411272  0.163759  1
  O  O57  1  0.588756  0.246902  0.163759  1
  O  O58  1  0.730903  0.454497  0.194117  1
  O  O59  1  0.545525  0.269099  0.194116  1
  O  O60  1  0.634624  0.465202  0.216169  1
  O  O61  1  0.534815  0.365385  0.216168  1
  O  O62  1  0.634601  0.465191  0.172068  1
  O  O63  1  0.534788  0.365382  0.172064  1
  O  O64  1  0.072510  0.245941  0.163333  1
  O  O65  1  0.246010  0.072423  0.163333  1
  O  O66  1  0.072525  0.245949  0.224903  1
  O  O67  1  0.246031  0.072433  0.224902  1
  O  O68  1  0.500022  0.499971  0.168591  1
  O  O69  1  0.190708  0.190626  0.173110  1
  O  O70  1  0.190720  0.190632  0.215125  1
  O  O71  1  0.118353  0.260450  0.194117  1
  O  O72  1  0.260532  0.118266  0.194117  1
  O  O73  1  0.500042  0.499968  0.219643  1
  O  O74  1  0.241746  0.376712  0.243066  1
  O  O75  1  0.376816  0.241646  0.243065  1
  O  O76  1  0.876809  0.258293  0.267834  1
  O  O77  1  0.741747  0.123222  0.267834  1
  O  O78  1  0.949773  0.242118  0.293961  1
  O  O79  1  0.757917  0.050256  0.293961  1
  O  O80  1  0.826397  0.314684  0.293538  1
  O  O81  1  0.685351  0.173626  0.293539  1
  O  O82  1  0.822725  0.177309  0.289319  1
  O  O83  1  0.256537  0.451613  0.268528  1
  O  O84  1  0.451718  0.256429  0.268526  1
  O  O85  1  0.951716  0.243502  0.242374  1
  O  O86  1  0.756537  0.048319  0.242373  1
  O  O87  1  0.186254  0.325375  0.268728  1
  O  O88  1  0.325471  0.186148  0.268726  1
  O  O89  1  0.825470  0.313787  0.242172  1
  O  O90  1  0.686254  0.174558  0.242172  1
  O  O91  1  0.324297  0.324192  0.264252  1
  O  O92  1  0.824296  0.175741  0.246648  1
  O  O93  1  0.088773  0.253038  0.286428  1
  O  O94  1  0.253120  0.088673  0.286426  1
  O  O95  1  0.500046  0.499965  0.264713  1
  O  O96  1  0.034817  0.134552  0.294731  1
  O  O97  1  0.134625  0.034733  0.294730  1
  O  O98  1  0.688109  0.311921  0.241317  1
  O  O99  1  0.188108  0.188014  0.269582  1
  O  O100  1  0.752397  0.418342  0.255320  1
  O  O101  1  0.581696  0.247620  0.255319  1
  O  O102  1  0.081694  0.252314  0.255580  1
  O  O103  1  0.252397  0.081594  0.255579  1
  O  O104  1  0.636487  0.461934  0.267797  1
  O  O105  1  0.538075  0.363520  0.267796  1
  O  O106  1  0.038073  0.136412  0.243104  1
  O  O107  1  0.136487  0.038000  0.243103  1
  O  O108  1  0.746032  0.427501  0.285997  1
  O  O109  1  0.572528  0.253979  0.285996  1
  O  O110  1  0.565258  0.434749  0.242110  1
  O  O111  1  0.065259  0.065184  0.268790  1
  O  O112  1  0.690719  0.309303  0.295774  1
  O  O113  1  0.123251  0.741630  0.120400  1
  O  O114  1  0.258299  0.876712  0.120401  1
  O  O115  1  0.758299  0.623228  0.145168  1
  O  O116  1  0.623247  0.758309  0.145169  1
  O  O117  1  0.050281  0.757806  0.094274  1
  O  O118  1  0.242133  0.949677  0.094273  1
  O  O119  1  0.173662  0.685247  0.094694  1
  O  O120  1  0.314701  0.826309  0.094697  1
  O  O121  1  0.177326  0.822622  0.098915  1
  O  O122  1  0.048337  0.756422  0.145859  1
  O  O123  1  0.243512  0.951611  0.145862  1
  O  O124  1  0.743513  0.548333  0.119705  1
  O  O125  1  0.548338  0.743519  0.119709  1
  O  O126  1  0.174585  0.686137  0.146062  1
  O  O127  1  0.313796  0.825374  0.146063  1
  O  O128  1  0.813796  0.674569  0.119507  1
  O  O129  1  0.674585  0.813805  0.119508  1
  O  O130  1  0.175754  0.824184  0.141586  1
  O  O131  1  0.675755  0.675758  0.123983  1
  O  O132  1  0.911278  0.746903  0.101806  1
  O  O133  1  0.746939  0.911277  0.101808  1
  O  O134  1  0.965252  0.865383  0.093503  1
  O  O135  1  0.865441  0.965197  0.093502  1
  O  O136  1  0.811946  0.811931  0.118651  1
  O  O137  1  0.311946  0.688012  0.146918  1
  O  O138  1  0.918358  0.747624  0.132653  1
  O  O139  1  0.747666  0.918356  0.132655  1
  O  O140  1  0.247665  0.581585  0.132915  1
  O  O141  1  0.418362  0.752319  0.132917  1
  O  O142  1  0.961990  0.863522  0.145129  1
  O  O143  1  0.863580  0.961938  0.145131  1
  O  O144  1  0.363580  0.538007  0.120437  1
  O  O145  1  0.461990  0.636421  0.120439  1
  O  O146  1  0.254030  0.572434  0.102238  1
  O  O147  1  0.427526  0.745961  0.102239  1
  O  O148  1  0.934802  0.934755  0.119443  1
  O  O149  1  0.434804  0.565190  0.146125  1
  O  O150  1  0.381707  0.760455  0.071454  1
  O  O151  1  0.309339  0.690632  0.092460  1
  O  O152  1  0.239533  0.618262  0.071452  1
  O  O153  1  0.954538  0.769097  0.071450  1
  O  O154  1  0.769160  0.954500  0.071451  1
  O  O155  1  -0.000000  -0.000000  0.142046  1
  O  O156  1  -0.000000  -0.000000  0.096977  1
  O  O157  1  0.742177  0.550260  0.216936  1
  O  O158  1  0.550315  0.742118  0.216937  1
  O  O159  1  0.742137  0.550267  0.171297  1
  O  O160  1  0.550282  0.742135  0.171296  1
  O  O161  1  0.814740  0.673635  0.217363  1
  O  O162  1  0.673685  0.814685  0.217364  1
  O  O163  1  0.814704  0.673635  0.170872  1
  O  O164  1  0.673662  0.814696  0.170874  1
  O  O165  1  0.677364  0.677308  0.221580  1
  O  O166  1  0.677327  0.677320  0.166655  1
  O  O167  1  0.246968  0.588676  0.224475  1
  O  O168  1  0.411321  0.753039  0.224477  1
  O  O169  1  0.246942  0.588666  0.163762  1
  O  O170  1  0.411278  0.753038  0.163764  1
  O  O171  1  0.269160  0.545437  0.194118  1
  O  O172  1  0.454538  0.730842  0.194119  1
  O  O173  1  0.365461  0.534744  0.216168  1
  O  O174  1  0.465273  0.634555  0.216170  1
  O  O175  1  0.365443  0.534743  0.172066  1
  O  O176  1  0.465253  0.634558  0.172066  1
  O  O177  1  0.927528  0.753987  0.163330  1
  O  O178  1  0.754032  0.927511  0.163332  1
  O  O179  1  0.927562  0.754000  0.224900  1
  O  O180  1  0.754049  0.927507  0.224903  1
  O  O181  1  0.809338  0.809311  0.173109  1
  O  O182  1  0.809359  0.809312  0.215124  1
  O  O183  1  0.881707  0.739487  0.194116  1
  O  O184  1  0.739531  0.881676  0.194118  1
  O  O185  1  0.758338  0.623212  0.243066  1
  O  O186  1  0.623266  0.758280  0.243067  1
  O  O187  1  0.123265  0.741655  0.267834  1
  O  O188  1  0.258333  0.876721  0.267834  1
  O  O189  1  0.050317  0.757817  0.293964  1
  O  O190  1  0.242178  0.949676  0.293963  1
  O  O191  1  0.173687  0.685246  0.293536  1
  O  O192  1  0.314741  0.826301  0.293536  1
  O  O193  1  0.177365  0.822625  0.289321  1
  O  O194  1  0.743554  0.548317  0.268528  1
  O  O195  1  0.548376  0.743494  0.268530  1
  O  O196  1  0.048376  0.756437  0.242370  1
  O  O197  1  0.243554  0.951617  0.242371  1
  O  O198  1  0.813841  0.674557  0.268725  1
  O  O199  1  0.674618  0.813784  0.268726  1
  O  O200  1  0.174618  0.686146  0.242175  1
  O  O201  1  0.313840  0.825377  0.242175  1
  O  O202  1  0.675797  0.675739  0.264252  1
  O  O203  1  0.175795  0.824194  0.246648  1
  O  O204  1  0.911323  0.746897  0.286424  1
  O  O205  1  0.746969  0.911256  0.286426  1
  O  O206  1  -0.000000  -0.000000  0.246187  1
  O  O207  1  0.965276  0.865383  0.294730  1
  O  O208  1  0.865462  0.965191  0.294733  1
  O  O209  1  0.311980  0.688015  0.241320  1
  O  O210  1  0.811981  0.811918  0.269581  1
  O  O211  1  0.247694  0.581590  0.255322  1
  O  O212  1  0.418395  0.752313  0.255324  1
  O  O213  1  0.918396  0.747620  0.255577  1
  O  O214  1  0.747692  0.918343  0.255580  1
  O  O215  1  0.363605  0.537994  0.267798  1
  O  O216  1  0.462017  0.636407  0.267798  1
  O  O217  1  0.962019  0.863526  0.243104  1
  O  O218  1  0.863602  0.961935  0.243102  1
  O  O219  1  0.254058  0.572426  0.285998  1
  O  O220  1  0.427564  0.745936  0.286001  1
  O  O221  1  0.434826  0.565182  0.242110  1
  O  O222  1  0.934824  0.934756  0.268790  1
  O  O223  1  0.309361  0.690625  0.295777  1
  O  O224  1  -0.000000  -0.000000  0.291257  1
  O  O225  1  0.876801  0.258297  0.365731  1
  O  O226  1  0.741746  0.123221  0.365731  1
  O  O227  1  0.241741  0.376719  0.390500  1
  O  O228  1  0.376801  0.241644  0.390499  1
  O  O229  1  0.949756  0.242138  0.339602  1
  O  O230  1  0.757902  0.050272  0.339601  1
  O  O231  1  0.826382  0.314704  0.340029  1
  O  O232  1  0.685331  0.173641  0.340030  1
  O  O233  1  0.822708  0.177325  0.344244  1
  O  O234  1  0.951697  0.243514  0.391193  1
  O  O235  1  0.756522  0.048329  0.391194  1
  O  O236  1  0.256522  0.451615  0.365037  1
  O  O237  1  0.451695  0.256433  0.365037  1
  O  O238  1  0.825452  0.313802  0.391391  1
  O  O239  1  0.686236  0.174567  0.391390  1
  O  O240  1  0.186236  0.325378  0.364840  1
  O  O241  1  0.325448  0.186144  0.364839  1
  O  O242  1  0.824279  0.175754  0.386918  1
  O  O243  1  0.324278  0.324192  0.369313  1
  O  O244  1  0.088755  0.253043  0.347140  1
  O  O245  1  0.253094  0.088672  0.347140  1
  O  O246  1  0.045524  0.230840  0.316783  1
  O  O247  1  0.034784  0.134562  0.338837  1
  O  O248  1  0.134597  0.034752  0.338831  1
  O  O249  1  0.188088  0.188015  0.363985  1
  O  O250  1  0.688090  0.311929  0.392245  1
  O  O251  1  0.081674  0.252318  0.377987  1
  O  O252  1  0.252373  0.081589  0.377987  1
  O  O253  1  0.752374  0.418356  0.378243  1
  O  O254  1  0.581674  0.247626  0.378243  1
  O  O255  1  0.038041  0.136414  0.390460  1
  O  O256  1  0.136458  0.038007  0.390464  1
  O  O257  1  0.636458  0.461938  0.365767  1
  O  O258  1  0.538042  0.363530  0.365770  1
  O  O259  1  0.746008  0.427520  0.347567  1
  O  O260  1  0.572507  0.254004  0.347566  1
  O  O261  1  0.065243  0.065178  0.364775  1
  O  O262  1  0.565245  0.434761  0.391456  1
  O  O263  1  0.690707  0.309317  0.337790  1
  O  O264  1  0.618354  0.239487  0.316782  1
  O  O265  1  0.230901  0.045440  0.316783  1
  O  O266  1  0.760529  0.381675  0.316782  1
  O  O267  1  0.500020  0.499975  0.368854  1
  O  O268  1  0.257915  0.449678  0.462270  1
  O  O269  1  0.449771  0.257820  0.462268  1
  O  O270  1  0.257904  0.449669  0.416629  1
  O  O271  1  0.449758  0.257807  0.416627  1
  O  O272  1  0.185346  0.326308  0.462693  1
  O  O273  1  0.326397  0.185251  0.462693  1
  O  O274  1  0.185333  0.326302  0.416203  1
  O  O275  1  0.326384  0.185239  0.416201  1
  O  O276  1  0.322722  0.322626  0.466911  1
  O  O277  1  0.322710  0.322617  0.411986  1
  O  O278  1  0.753119  0.411263  0.469804  1
  O  O279  1  0.588772  0.246899  0.469803  1
  O  O280  1  0.753099  0.411272  0.409090  1
  O  O281  1  0.588756  0.246902  0.409090  1
  O  O282  1  0.730903  0.454497  0.439448  1
  O  O283  1  0.545525  0.269099  0.439447  1
  O  O284  1  0.634624  0.465202  0.461501  1
  O  O285  1  0.534815  0.365385  0.461499  1
  O  O286  1  0.634601  0.465191  0.417399  1
  O  O287  1  0.534788  0.365382  0.417395  1
  O  O288  1  0.072510  0.245941  0.408664  1
  O  O289  1  0.246010  0.072423  0.408664  1
  O  O290  1  0.072525  0.245949  0.470234  1
  O  O291  1  0.246031  0.072433  0.470233  1
  O  O292  1  0.500022  0.499971  0.413922  1
  O  O293  1  0.190708  0.190626  0.418441  1
  O  O294  1  0.190720  0.190632  0.460456  1
  O  O295  1  0.118353  0.260450  0.439448  1
  O  O296  1  0.260532  0.118266  0.439448  1
  O  O297  1  0.500042  0.499968  0.464974  1
  O  O298  1  0.241746  0.376712  0.488397  1
  O  O299  1  0.376816  0.241646  0.488397  1
  O  O300  1  0.876809  0.258293  0.513165  1
  O  O301  1  0.741747  0.123222  0.513165  1
  O  O302  1  0.949773  0.242118  0.539292  1
  O  O303  1  0.757917  0.050256  0.539292  1
  O  O304  1  0.826397  0.314684  0.538870  1
  O  O305  1  0.685351  0.173626  0.538870  1
  O  O306  1  0.822725  0.177309  0.534651  1
  O  O307  1  0.256537  0.451613  0.513859  1
  O  O308  1  0.451718  0.256429  0.513857  1
  O  O309  1  0.951716  0.243502  0.487705  1
  O  O310  1  0.756537  0.048319  0.487704  1
  O  O311  1  0.186254  0.325375  0.514059  1
  O  O312  1  0.325471  0.186148  0.514057  1
  O  O313  1  0.825470  0.313787  0.487503  1
  O  O314  1  0.686254  0.174558  0.487503  1
  O  O315  1  0.324297  0.324192  0.509583  1
  O  O316  1  0.824296  0.175741  0.491979  1
  O  O317  1  0.088773  0.253038  0.531759  1
  O  O318  1  0.253120  0.088673  0.531757  1
  O  O319  1  0.500046  0.499965  0.510044  1
  O  O320  1  0.034817  0.134552  0.540063  1
  O  O321  1  0.134625  0.034733  0.540061  1
  O  O322  1  0.688109  0.311921  0.486648  1
  O  O323  1  0.188108  0.188014  0.514914  1
  O  O324  1  0.752397  0.418342  0.500651  1
  O  O325  1  0.581696  0.247620  0.500650  1
  O  O326  1  0.081694  0.252314  0.500911  1
  O  O327  1  0.252397  0.081594  0.500910  1
  O  O328  1  0.636487  0.461934  0.513128  1
  O  O329  1  0.538075  0.363520  0.513128  1
  O  O330  1  0.038073  0.136412  0.488435  1
  O  O331  1  0.136487  0.038000  0.488434  1
  O  O332  1  0.746032  0.427501  0.531328  1
  O  O333  1  0.572528  0.253979  0.531327  1
  O  O334  1  0.565258  0.434749  0.487441  1
  O  O335  1  0.065259  0.065184  0.514121  1
  O  O336  1  0.690719  0.309303  0.541106  1
  O  O337  1  0.123251  0.741630  0.365731  1
  O  O338  1  0.258299  0.876712  0.365732  1
  O  O339  1  0.758299  0.623228  0.390499  1
  O  O340  1  0.623247  0.758309  0.390500  1
  O  O341  1  0.050281  0.757806  0.339605  1
  O  O342  1  0.242133  0.949677  0.339604  1
  O  O343  1  0.173662  0.685247  0.340026  1
  O  O344  1  0.314701  0.826309  0.340028  1
  O  O345  1  0.177326  0.822622  0.344246  1
  O  O346  1  0.048337  0.756422  0.391191  1
  O  O347  1  0.243512  0.951611  0.391193  1
  O  O348  1  0.743513  0.548333  0.365037  1
  O  O349  1  0.548338  0.743519  0.365040  1
  O  O350  1  0.174585  0.686137  0.391393  1
  O  O351  1  0.313796  0.825374  0.391394  1
  O  O352  1  0.813796  0.674569  0.364838  1
  O  O353  1  0.674585  0.813805  0.364839  1
  O  O354  1  0.175754  0.824184  0.386918  1
  O  O355  1  0.675755  0.675758  0.369314  1
  O  O356  1  0.911278  0.746903  0.347137  1
  O  O357  1  0.746939  0.911277  0.347139  1
  O  O358  1  0.965252  0.865383  0.338834  1
  O  O359  1  0.865441  0.965197  0.338833  1
  O  O360  1  0.811946  0.811931  0.363982  1
  O  O361  1  0.311946  0.688012  0.392249  1
  O  O362  1  0.918358  0.747624  0.377984  1
  O  O363  1  0.747666  0.918356  0.377986  1
  O  O364  1  0.247665  0.581585  0.378246  1
  O  O365  1  0.418362  0.752319  0.378248  1
  O  O366  1  0.961990  0.863522  0.390460  1
  O  O367  1  0.863580  0.961938  0.390463  1
  O  O368  1  0.363580  0.538007  0.365769  1
  O  O369  1  0.461990  0.636421  0.365770  1
  O  O370  1  0.254030  0.572434  0.347569  1
  O  O371  1  0.427526  0.745961  0.347571  1
  O  O372  1  0.934802  0.934755  0.364775  1
  O  O373  1  0.434804  0.565190  0.391456  1
  O  O374  1  0.381707  0.760455  0.316785  1
  O  O375  1  0.309339  0.690632  0.337791  1
  O  O376  1  0.239533  0.618262  0.316783  1
  O  O377  1  0.954538  0.769097  0.316782  1
  O  O378  1  0.769160  0.954500  0.316782  1
  O  O379  1  -0.000000  -0.000000  0.387378  1
  O  O380  1  0.000000  -0.000000  0.342308  1
  O  O381  1  0.742177  0.550260  0.462268  1
  O  O382  1  0.550315  0.742118  0.462268  1
  O  O383  1  0.742137  0.550267  0.416628  1
  O  O384  1  0.550282  0.742135  0.416627  1
  O  O385  1  0.814740  0.673635  0.462694  1
  O  O386  1  0.673685  0.814685  0.462695  1
  O  O387  1  0.814704  0.673635  0.416203  1
  O  O388  1  0.673662  0.814696  0.416205  1
  O  O389  1  0.677364  0.677308  0.466911  1
  O  O390  1  0.677327  0.677320  0.411986  1
  O  O391  1  0.246968  0.588676  0.469806  1
  O  O392  1  0.411321  0.753039  0.469808  1
  O  O393  1  0.246942  0.588666  0.409093  1
  O  O394  1  0.411278  0.753038  0.409095  1
  O  O395  1  0.269160  0.545437  0.439449  1
  O  O396  1  0.454538  0.730842  0.439450  1
  O  O397  1  0.365461  0.534744  0.461499  1
  O  O398  1  0.465273  0.634555  0.461501  1
  O  O399  1  0.365443  0.534743  0.417398  1
  O  O400  1  0.465253  0.634558  0.417397  1
  O  O401  1  0.927528  0.753987  0.408661  1
  O  O402  1  0.754032  0.927511  0.408663  1
  O  O403  1  0.927562  0.754000  0.470231  1
  O  O404  1  0.754049  0.927507  0.470234  1
  O  O405  1  0.809338  0.809311  0.418440  1
  O  O406  1  0.809359  0.809312  0.460455  1
  O  O407  1  0.881707  0.739487  0.439447  1
  O  O408  1  0.739531  0.881676  0.439449  1
  O  O409  1  0.758338  0.623212  0.488397  1
  O  O410  1  0.623266  0.758280  0.488398  1
  O  O411  1  0.123265  0.741655  0.513165  1
  O  O412  1  0.258333  0.876721  0.513165  1
  O  O413  1  0.050317  0.757817  0.539295  1
  O  O414  1  0.242178  0.949676  0.539294  1
  O  O415  1  0.173687  0.685246  0.538867  1
  O  O416  1  0.314741  0.826301  0.538868  1
  O  O417  1  0.177365  0.822625  0.534652  1
  O  O418  1  0.743554  0.548317  0.513859  1
  O  O419  1  0.548376  0.743494  0.513861  1
  O  O420  1  0.048376  0.756437  0.487702  1
  O  O421  1  0.243554  0.951617  0.487703  1
  O  O422  1  0.813841  0.674557  0.514057  1
  O  O423  1  0.674618  0.813784  0.514057  1
  O  O424  1  0.174618  0.686146  0.487507  1
  O  O425  1  0.313840  0.825377  0.487507  1
  O  O426  1  0.675797  0.675739  0.509583  1
  O  O427  1  0.175795  0.824194  0.491979  1
  O  O428  1  0.911323  0.746897  0.531755  1
  O  O429  1  0.746969  0.911256  0.531757  1
  O  O430  1  -0.000000  -0.000000  0.491518  1
  O  O431  1  0.965276  0.865383  0.540061  1
  O  O432  1  0.865462  0.965191  0.540064  1
  O  O433  1  0.311980  0.688015  0.486651  1
  O  O434  1  0.811981  0.811918  0.514912  1
  O  O435  1  0.247694  0.581590  0.500653  1
  O  O436  1  0.418395  0.752313  0.500656  1
  O  O437  1  0.918396  0.747620  0.500908  1
  O  O438  1  0.747692  0.918343  0.500911  1
  O  O439  1  0.363605  0.537994  0.513129  1
  O  O440  1  0.462017  0.636407  0.513129  1
  O  O441  1  0.962019  0.863526  0.488435  1
  O  O442  1  0.863602  0.961935  0.488433  1
  O  O443  1  0.254058  0.572426  0.531329  1
  O  O444  1  0.427564  0.745936  0.531332  1
  O  O445  1  0.434826  0.565182  0.487441  1
  O  O446  1  0.934824  0.934756  0.514121  1
  O  O447  1  0.309361  0.690625  0.541108  1
  O  O448  1  -0.000000  -0.000000  0.536588  1
  O  O449  1  0.876801  0.258297  0.611062  1
  O  O450  1  0.741746  0.123221  0.611062  1
  O  O451  1  0.241741  0.376719  0.635831  1
  O  O452  1  0.376801  0.241644  0.635830  1
  O  O453  1  0.949756  0.242138  0.584933  1
  O  O454  1  0.757902  0.050272  0.584933  1
  O  O455  1  0.826382  0.314704  0.585360  1
  O  O456  1  0.685331  0.173641  0.585361  1
  O  O457  1  0.822708  0.177325  0.589575  1
  O  O458  1  0.951697  0.243514  0.636524  1
  O  O459  1  0.756522  0.048329  0.636525  1
  O  O460  1  0.256522  0.451615  0.610368  1
  O  O461  1  0.451695  0.256433  0.610368  1
  O  O462  1  0.825452  0.313802  0.636722  1
  O  O463  1  0.686236  0.174567  0.636721  1
  O  O464  1  0.186236  0.325378  0.610171  1
  O  O465  1  0.325448  0.186144  0.610170  1
  O  O466  1  0.824279  0.175754  0.632249  1
  O  O467  1  0.324278  0.324192  0.614645  1
  O  O468  1  0.088755  0.253043  0.592471  1
  O  O469  1  0.253094  0.088672  0.592471  1
  O  O470  1  0.045524  0.230840  0.562115  1
  O  O471  1  0.034784  0.134562  0.584168  1
  O  O472  1  0.134597  0.034752  0.584162  1
  O  O473  1  0.188088  0.188015  0.609316  1
  O  O474  1  0.688090  0.311929  0.637577  1
  O  O475  1  0.081674  0.252318  0.623318  1
  O  O476  1  0.252373  0.081589  0.623318  1
  O  O477  1  0.752374  0.418356  0.623575  1
  O  O478  1  0.581674  0.247626  0.623574  1
  O  O479  1  0.038041  0.136414  0.635791  1
  O  O480  1  0.136458  0.038007  0.635795  1
  O  O481  1  0.636458  0.461938  0.611098  1
  O  O482  1  0.538042  0.363530  0.611102  1
  O  O483  1  0.746008  0.427520  0.592898  1
  O  O484  1  0.572507  0.254004  0.592897  1
  O  O485  1  0.065243  0.065178  0.610106  1
  O  O486  1  0.565245  0.434761  0.636787  1
  O  O487  1  0.690707  0.309317  0.583121  1
  O  O488  1  0.618354  0.239487  0.562114  1
  O  O489  1  0.230901  0.045440  0.562114  1
  O  O490  1  0.760529  0.381675  0.562113  1
  O  O491  1  0.500020  0.499975  0.614185  1
  O  O492  1  0.257915  0.449678  0.707602  1
  O  O493  1  0.449771  0.257820  0.707599  1
  O  O494  1  0.257904  0.449669  0.661960  1
  O  O495  1  0.449758  0.257807  0.661959  1
  O  O496  1  0.185346  0.326308  0.708024  1
  O  O497  1  0.326397  0.185251  0.708024  1
  O  O498  1  0.185333  0.326302  0.661534  1
  O  O499  1  0.326384  0.185239  0.661533  1
  O  O500  1  0.322722  0.322626  0.712242  1
  O  O501  1  0.322710  0.322617  0.657317  1
  O  O502  1  0.753119  0.411263  0.715135  1
  O  O503  1  0.588772  0.246899  0.715134  1
  O  O504  1  0.753099  0.411272  0.654422  1
  O  O505  1  0.588756  0.246902  0.654421  1
  O  O506  1  0.730903  0.454497  0.684779  1
  O  O507  1  0.545525  0.269099  0.684778  1
  O  O508  1  0.634624  0.465202  0.706832  1
  O  O509  1  0.534815  0.365385  0.706830  1
  O  O510  1  0.634601  0.465191  0.662730  1
  O  O511  1  0.534788  0.365382  0.662726  1
  O  O512  1  0.072510  0.245941  0.653995  1
  O  O513  1  0.246010  0.072423  0.653995  1
  O  O514  1  0.072525  0.245949  0.715565  1
  O  O515  1  0.246031  0.072433  0.715564  1
  O  O516  1  0.500022  0.499971  0.659254  1
  O  O517  1  0.190708  0.190626  0.663772  1
  O  O518  1  0.190720  0.190632  0.705787  1
  O  O519  1  0.118353  0.260450  0.684780  1
  O  O520  1  0.260532  0.118266  0.684779  1
  O  O521  1  0.500042  0.499968  0.710306  1
  O  O522  1  0.241746  0.376712  0.733729  1
  O  O523  1  0.376816  0.241646  0.733728  1
  O  O524  1  0.876809  0.258293  0.758496  1
  O  O525  1  0.741747  0.123222  0.758496  1
  O  O526  1  0.949773  0.242118  0.784623  1
  O  O527  1  0.757917  0.050256  0.784623  1
  O  O528  1  0.826397  0.314684  0.784201  1
  O  O529  1  0.685351  0.173626  0.784202  1
  O  O530  1  0.822725  0.177309  0.779982  1
  O  O531  1  0.256537  0.451613  0.759191  1
  O  O532  1  0.451718  0.256429  0.759188  1
  O  O533  1  0.951716  0.243502  0.733036  1
  O  O534  1  0.756537  0.048319  0.733035  1
  O  O535  1  0.186254  0.325375  0.759390  1
  O  O536  1  0.325471  0.186148  0.759389  1
  O  O537  1  0.825470  0.313787  0.732834  1
  O  O538  1  0.686254  0.174558  0.732834  1
  O  O539  1  0.324297  0.324192  0.754914  1
  O  O540  1  0.824296  0.175741  0.737310  1
  O  O541  1  0.088773  0.253038  0.777090  1
  O  O542  1  0.253120  0.088673  0.777089  1
  O  O543  1  0.500046  0.499965  0.755375  1
  O  O544  1  0.034817  0.134552  0.785394  1
  O  O545  1  0.134625  0.034733  0.785392  1
  O  O546  1  0.688109  0.311921  0.731979  1
  O  O547  1  0.188108  0.188014  0.760245  1
  O  O548  1  0.752397  0.418342  0.745982  1
  O  O549  1  0.581696  0.247620  0.745981  1
  O  O550  1  0.081694  0.252314  0.746243  1
  O  O551  1  0.252397  0.081594  0.746241  1
  O  O552  1  0.636487  0.461934  0.758459  1
  O  O553  1  0.538075  0.363520  0.758459  1
  O  O554  1  0.038073  0.136412  0.733766  1
  O  O555  1  0.136487  0.038000  0.733765  1
  O  O556  1  0.746032  0.427501  0.776659  1
  O  O557  1  0.572528  0.253979  0.776659  1
  O  O558  1  0.565258  0.434749  0.732772  1
  O  O559  1  0.065259  0.065184  0.759452  1
  O  O560  1  0.690719  0.309303  0.786437  1
  O  O561  1  0.123251  0.741630  0.611062  1
  O  O562  1  0.258299  0.876712  0.611063  1
  O  O563  1  0.758299  0.623228  0.635831  1
  O  O564  1  0.623247  0.758309  0.635831  1
  O  O565  1  0.050281  0.757806  0.584936  1
  O  O566  1  0.242133  0.949677  0.584935  1
  O  O567  1  0.173662  0.685247  0.585357  1
  O  O568  1  0.314701  0.826309  0.585359  1
  O  O569  1  0.177326  0.822622  0.589577  1
  O  O570  1  0.048337  0.756422  0.636522  1
  O  O571  1  0.243512  0.951611  0.636524  1
  O  O572  1  0.743513  0.548333  0.610368  1
  O  O573  1  0.548338  0.743519  0.610371  1
  O  O574  1  0.174585  0.686137  0.636725  1
  O  O575  1  0.313796  0.825374  0.636725  1
  O  O576  1  0.813796  0.674569  0.610169  1
  O  O577  1  0.674585  0.813805  0.610170  1
  O  O578  1  0.175754  0.824184  0.632249  1
  O  O579  1  0.675755  0.675758  0.614645  1
  O  O580  1  0.911278  0.746903  0.592468  1
  O  O581  1  0.746939  0.911277  0.592470  1
  O  O582  1  0.965252  0.865383  0.584165  1
  O  O583  1  0.865441  0.965197  0.584165  1
  O  O584  1  0.811946  0.811931  0.609314  1
  O  O585  1  0.311946  0.688012  0.637580  1
  O  O586  1  0.918358  0.747624  0.623316  1
  O  O587  1  0.747666  0.918356  0.623317  1
  O  O588  1  0.247665  0.581585  0.623577  1
  O  O589  1  0.418362  0.752319  0.623579  1
  O  O590  1  0.961990  0.863522  0.635791  1
  O  O591  1  0.863580  0.961938  0.635794  1
  O  O592  1  0.363580  0.538007  0.611100  1
  O  O593  1  0.461990  0.636421  0.611102  1
  O  O594  1  0.254030  0.572434  0.592900  1
  O  O595  1  0.427526  0.745961  0.592902  1
  O  O596  1  0.934802  0.934755  0.610106  1
  O  O597  1  0.434804  0.565190  0.636787  1
  O  O598  1  0.381707  0.760455  0.562116  1
  O  O599  1  0.309339  0.690632  0.583122  1
  O  O600  1  0.239533  0.618262  0.562114  1
  O  O601  1  0.954538  0.769097  0.562113  1
  O  O602  1  0.769160  0.954500  0.562113  1
  O  O603  1  -0.000000  -0.000000  0.632709  1
  O  O604  1  -0.000000  -0.000000  0.587639  1
  O  O605  1  0.742177  0.550260  0.707599  1
  O  O606  1  0.550315  0.742118  0.707600  1
  O  O607  1  0.742137  0.550267  0.661959  1
  O  O608  1  0.550282  0.742135  0.661958  1
  O  O609  1  0.814740  0.673635  0.708025  1
  O  O610  1  0.673685  0.814685  0.708026  1
  O  O611  1  0.814704  0.673635  0.661534  1
  O  O612  1  0.673662  0.814696  0.661536  1
  O  O613  1  0.677364  0.677308  0.712242  1
  O  O614  1  0.677327  0.677320  0.657317  1
  O  O615  1  0.246968  0.588676  0.715137  1
  O  O616  1  0.411321  0.753039  0.715139  1
  O  O617  1  0.246942  0.588666  0.654425  1
  O  O618  1  0.411278  0.753038  0.654426  1
  O  O619  1  0.269160  0.545437  0.684781  1
  O  O620  1  0.454538  0.730842  0.684782  1
  O  O621  1  0.365461  0.534744  0.706830  1
  O  O622  1  0.465273  0.634555  0.706832  1
  O  O623  1  0.365443  0.534743  0.662729  1
  O  O624  1  0.465253  0.634558  0.662729  1
  O  O625  1  0.927528  0.753987  0.653993  1
  O  O626  1  0.754032  0.927511  0.653994  1
  O  O627  1  0.927562  0.754000  0.715562  1
  O  O628  1  0.754049  0.927507  0.715565  1
  O  O629  1  0.809338  0.809311  0.663772  1
  O  O630  1  0.809359  0.809312  0.705787  1
  O  O631  1  0.881707  0.739487  0.684778  1
  O  O632  1  0.739531  0.881676  0.684780  1
  O  O633  1  0.758338  0.623212  0.733728  1
  O  O634  1  0.623266  0.758280  0.733729  1
  O  O635  1  0.123265  0.741655  0.758496  1
  O  O636  1  0.258333  0.876721  0.758496  1
  O  O637  1  0.050317  0.757817  0.784626  1
  O  O638  1  0.242178  0.949676  0.784625  1
  O  O639  1  0.173687  0.685246  0.784198  1
  O  O640  1  0.314741  0.826301  0.784199  1
  O  O641  1  0.177365  0.822625  0.779983  1
  O  O642  1  0.743554  0.548317  0.759190  1
  O  O643  1  0.548376  0.743494  0.759192  1
  O  O644  1  0.048376  0.756437  0.733033  1
  O  O645  1  0.243554  0.951617  0.733034  1
  O  O646  1  0.813841  0.674557  0.759388  1
  O  O647  1  0.674618  0.813784  0.759388  1
  O  O648  1  0.174618  0.686146  0.732838  1
  O  O649  1  0.313840  0.825377  0.732838  1
  O  O650  1  0.675797  0.675739  0.754914  1
  O  O651  1  0.175795  0.824194  0.737310  1
  O  O652  1  0.911323  0.746897  0.777086  1
  O  O653  1  0.746969  0.911256  0.777089  1
  O  O654  1  -0.000000  -0.000000  0.736849  1
  O  O655  1  0.965276  0.865383  0.785392  1
  O  O656  1  0.865462  0.965191  0.785395  1
  O  O657  1  0.311980  0.688015  0.731983  1
  O  O658  1  0.811981  0.811918  0.760243  1
  O  O659  1  0.247694  0.581590  0.745984  1
  O  O660  1  0.418395  0.752313  0.745987  1
  O  O661  1  0.918396  0.747620  0.746239  1
  O  O662  1  0.747692  0.918343  0.746242  1
  O  O663  1  0.363605  0.537994  0.758460  1
  O  O664  1  0.462017  0.636407  0.758460  1
  O  O665  1  0.962019  0.863526  0.733766  1
  O  O666  1  0.863602  0.961935  0.733764  1
  O  O667  1  0.254058  0.572426  0.776661  1
  O  O668  1  0.427564  0.745936  0.776664  1
  O  O669  1  0.434826  0.565182  0.732773  1
  O  O670  1  0.934824  0.934756  0.759453  1
  O  O671  1  0.309361  0.690625  0.786439  1
  O  O672  1  0.000000  0.000000  0.781919  1
  O  O673  1  0.045524  0.230840  0.807446  1
  O  O674  1  0.618354  0.239487  0.807445  1
  O  O675  1  0.230901  0.045440  0.807445  1
  O  O676  1  0.760529  0.381675  0.807444  1
  O  O677  1  0.381707  0.760455  0.807447  1
  O  O678  1  0.239533  0.618262  0.807445  1
  O  O679  1  0.954538  0.769097  0.807444  1
  O  O680  1  0.769160  0.954500  0.807444  1
  Si  Si681  1  0.559553  0.440440  0.127236  1
  Si  Si682  1  0.871048  0.248234  0.101675  1
  Si  Si683  1  0.751805  0.128981  0.101675  1
  Si  Si684  1  0.871411  0.247750  0.139153  1
  Si  Si685  1  0.752290  0.128614  0.139153  1
  Si  Si686  1  0.252289  0.371330  0.126416  1
  Si  Si687  1  0.371409  0.252194  0.126415  1
  Si  Si688  1  0.030060  0.218637  0.090026  1
  Si  Si689  1  0.218671  0.029989  0.090025  1
  Si  Si690  1  0.135579  0.256085  0.117860  1
  Si  Si691  1  0.256149  0.135496  0.117860  1
  Si  Si692  1  0.756151  0.364448  0.147707  1
  Si  Si693  1  0.635579  0.243860  0.147707  1
  Si  Si694  1  0.034680  0.221676  0.147067  1
  Si  Si695  1  0.221717  0.034606  0.147067  1
  Si  Si696  1  0.721716  0.465338  0.118501  1
  Si  Si697  1  0.534678  0.278268  0.118501  1
  Si  Si698  1  0.757515  0.362163  0.090061  1
  Si  Si699  1  0.637865  0.242504  0.090061  1
  Si  Si700  1  0.059358  0.059314  0.100574  1
  Si  Si701  1  0.059552  0.059502  0.138333  1
  Si  Si702  1  0.251815  0.370965  0.224341  1
  Si  Si703  1  0.371063  0.251717  0.224341  1
  Si  Si704  1  0.251805  0.370961  0.163894  1
  Si  Si705  1  0.371049  0.251708  0.163892  1
  Si  Si706  1  0.718696  0.469950  0.212690  1
  Si  Si707  1  0.530075  0.281309  0.212690  1
  Si  Si708  1  0.718676  0.469952  0.175543  1
  Si  Si709  1  0.530061  0.281306  0.175542  1
  Si  Si710  1  0.137866  0.257438  0.175507  1
  Si  Si711  1  0.257517  0.137780  0.175507  1
  Si  Si712  1  0.137876  0.257443  0.212727  1
  Si  Si713  1  0.257530  0.137788  0.212726  1
  Si  Si714  1  0.559383  0.440628  0.223240  1
  Si  Si715  1  0.559361  0.440629  0.164995  1
  Si  Si716  1  0.637878  0.242490  0.298173  1
  Si  Si717  1  0.059579  0.059501  0.249901  1
  Si  Si718  1  0.559579  0.440431  0.260999  1
  Si  Si719  1  0.059384  0.059308  0.287660  1
  Si  Si720  1  0.871063  0.248220  0.286559  1
  Si  Si721  1  0.751818  0.128969  0.286559  1
  Si  Si722  1  0.252304  0.371326  0.261819  1
  Si  Si723  1  0.371430  0.252196  0.261818  1
  Si  Si724  1  0.871428  0.247738  0.249081  1
  Si  Si725  1  0.752303  0.128607  0.249081  1
  Si  Si726  1  0.030075  0.218628  0.298210  1
  Si  Si727  1  0.218697  0.029986  0.298209  1
  Si  Si728  1  0.756172  0.364437  0.240524  1
  Si  Si729  1  0.635598  0.243853  0.240523  1
  Si  Si730  1  0.135597  0.256082  0.270376  1
  Si  Si731  1  0.256172  0.135499  0.270375  1
  Si  Si732  1  0.721746  0.465325  0.269732  1
  Si  Si733  1  0.534703  0.278257  0.269731  1
  Si  Si734  1  0.034701  0.221675  0.241169  1
  Si  Si735  1  0.221746  0.034610  0.241167  1
  Si  Si736  1  0.757529  0.362148  0.298173  1
  Si  Si737  1  0.440486  0.559509  0.127236  1
  Si  Si738  1  0.128994  0.751708  0.101675  1
  Si  Si739  1  0.248231  0.870966  0.101676  1
  Si  Si740  1  0.128626  0.752185  0.139153  1
  Si  Si741  1  0.247745  0.871323  0.139153  1
  Si  Si742  1  0.747745  0.628619  0.126415  1
  Si  Si743  1  0.628626  0.747757  0.126416  1
  Si  Si744  1  0.969982  0.781306  0.090024  1
  Si  Si745  1  0.781369  0.969958  0.090024  1
  Si  Si746  1  0.864454  0.743861  0.117858  1
  Si  Si747  1  0.743886  0.864451  0.117859  1
  Si  Si748  1  0.243886  0.635492  0.147710  1
  Si  Si749  1  0.364455  0.756082  0.147712  1
  Si  Si750  1  0.965354  0.778259  0.147065  1
  Si  Si751  1  0.778322  0.965334  0.147067  1
  Si  Si752  1  0.278321  0.534610  0.118502  1
  Si  Si753  1  0.465355  0.721685  0.118504  1
  Si  Si754  1  0.242532  0.637785  0.090061  1
  Si  Si755  1  0.362177  0.757448  0.090063  1
  Si  Si756  1  0.940682  0.940628  0.100574  1
  Si  Si757  1  0.940486  0.940435  0.138332  1
  Si  Si758  1  0.440683  0.559314  0.164995  1
  Si  Si759  1  0.748273  0.628969  0.224341  1
  Si  Si760  1  0.629023  0.748215  0.224342  1
  Si  Si761  1  0.748233  0.628978  0.163893  1
  Si  Si762  1  0.628993  0.748234  0.163894  1
  Si  Si763  1  0.281387  0.529989  0.212692  1
  Si  Si764  1  0.470007  0.718631  0.212692  1
  Si  Si765  1  0.281371  0.529983  0.175545  1
  Si  Si766  1  0.469982  0.718635  0.175545  1
  Si  Si767  1  0.862178  0.742496  0.175507  1
  Si  Si768  1  0.742532  0.862158  0.175508  1
  Si  Si769  1  0.862202  0.742501  0.212726  1
  Si  Si770  1  0.742547  0.862154  0.212727  1
  Si  Si771  1  0.440702  0.559310  0.223240  1
  Si  Si772  1  0.440512  0.559498  0.260999  1
  Si  Si773  1  0.940510  0.940436  0.249901  1
  Si  Si774  1  0.940703  0.940628  0.287660  1
  Si  Si775  1  0.362203  0.757437  0.298175  1
  Si  Si776  1  0.129023  0.751717  0.286559  1
  Si  Si777  1  0.248272  0.870965  0.286559  1
  Si  Si778  1  0.747789  0.628604  0.261819  1
  Si  Si779  1  0.628660  0.747732  0.261819  1
  Si  Si780  1  0.128659  0.752200  0.249081  1
  Si  Si781  1  0.247786  0.871331  0.249081  1
  Si  Si782  1  0.970009  0.781306  0.298209  1
  Si  Si783  1  0.781388  0.969946  0.298209  1
  Si  Si784  1  0.243917  0.635499  0.240527  1
  Si  Si785  1  0.364494  0.756081  0.240528  1
  Si  Si786  1  0.864496  0.743853  0.270373  1
  Si  Si787  1  0.743917  0.864433  0.270374  1
  Si  Si788  1  0.278347  0.534605  0.269733  1
  Si  Si789  1  0.465390  0.721668  0.269735  1
  Si  Si790  1  0.965390  0.778265  0.241166  1
  Si  Si791  1  0.778343  0.965326  0.241168  1
  Si  Si792  1  0.242551  0.637781  0.298173  1
  Si  Si793  1  0.559553  0.440440  0.372567  1
  Si  Si794  1  0.871048  0.248234  0.347006  1
  Si  Si795  1  0.751805  0.128981  0.347006  1
  Si  Si796  1  0.871411  0.247750  0.384484  1
  Si  Si797  1  0.752290  0.128614  0.384484  1
  Si  Si798  1  0.252289  0.371330  0.371747  1
  Si  Si799  1  0.371409  0.252194  0.371746  1
  Si  Si800  1  0.030060  0.218637  0.335357  1
  Si  Si801  1  0.218671  0.029989  0.335356  1
  Si  Si802  1  0.135579  0.256085  0.363192  1
  Si  Si803  1  0.256149  0.135496  0.363192  1
  Si  Si804  1  0.756151  0.364448  0.393038  1
  Si  Si805  1  0.635579  0.243860  0.393038  1
  Si  Si806  1  0.034680  0.221676  0.392398  1
  Si  Si807  1  0.221717  0.034606  0.392399  1
  Si  Si808  1  0.721716  0.465338  0.363832  1
  Si  Si809  1  0.534678  0.278268  0.363832  1
  Si  Si810  1  0.757515  0.362163  0.335392  1
  Si  Si811  1  0.637865  0.242504  0.335392  1
  Si  Si812  1  0.059358  0.059314  0.345905  1
  Si  Si813  1  0.059552  0.059502  0.383664  1
  Si  Si814  1  0.251815  0.370965  0.469672  1
  Si  Si815  1  0.371063  0.251717  0.469672  1
  Si  Si816  1  0.251805  0.370961  0.409225  1
  Si  Si817  1  0.371049  0.251708  0.409224  1
  Si  Si818  1  0.718696  0.469950  0.458021  1
  Si  Si819  1  0.530075  0.281309  0.458021  1
  Si  Si820  1  0.718676  0.469952  0.420875  1
  Si  Si821  1  0.530061  0.281306  0.420874  1
  Si  Si822  1  0.137866  0.257438  0.420839  1
  Si  Si823  1  0.257517  0.137780  0.420839  1
  Si  Si824  1  0.137876  0.257443  0.458058  1
  Si  Si825  1  0.257530  0.137788  0.458058  1
  Si  Si826  1  0.559383  0.440628  0.468571  1
  Si  Si827  1  0.559361  0.440629  0.410326  1
  Si  Si828  1  0.637878  0.242490  0.543504  1
  Si  Si829  1  0.059579  0.059501  0.495232  1
  Si  Si830  1  0.559579  0.440431  0.506330  1
  Si  Si831  1  0.059384  0.059308  0.532991  1
  Si  Si832  1  0.871063  0.248220  0.531890  1
  Si  Si833  1  0.751818  0.128969  0.531890  1
  Si  Si834  1  0.252304  0.371326  0.507150  1
  Si  Si835  1  0.371430  0.252196  0.507149  1
  Si  Si836  1  0.871428  0.247738  0.494412  1
  Si  Si837  1  0.752303  0.128607  0.494412  1
  Si  Si838  1  0.030075  0.218628  0.543541  1
  Si  Si839  1  0.218697  0.029986  0.543540  1
  Si  Si840  1  0.756172  0.364437  0.485856  1
  Si  Si841  1  0.635598  0.243853  0.485854  1
  Si  Si842  1  0.135597  0.256082  0.515707  1
  Si  Si843  1  0.256172  0.135499  0.515706  1
  Si  Si844  1  0.721746  0.465325  0.515063  1
  Si  Si845  1  0.534703  0.278257  0.515062  1
  Si  Si846  1  0.034701  0.221675  0.486500  1
  Si  Si847  1  0.221746  0.034610  0.486498  1
  Si  Si848  1  0.757529  0.362148  0.543504  1
  Si  Si849  1  0.440486  0.559509  0.372567  1
  Si  Si850  1  0.128994  0.751708  0.347006  1
  Si  Si851  1  0.248231  0.870966  0.347007  1
  Si  Si852  1  0.128626  0.752185  0.384484  1
  Si  Si853  1  0.247745  0.871323  0.384485  1
  Si  Si854  1  0.747745  0.628619  0.371747  1
  Si  Si855  1  0.628626  0.747757  0.371748  1
  Si  Si856  1  0.969982  0.781306  0.335356  1
  Si  Si857  1  0.781369  0.969958  0.335356  1
  Si  Si858  1  0.864454  0.743861  0.363189  1
  Si  Si859  1  0.743886  0.864451  0.363190  1
  Si  Si860  1  0.243886  0.635492  0.393042  1
  Si  Si861  1  0.364455  0.756082  0.393043  1
  Si  Si862  1  0.965354  0.778259  0.392396  1
  Si  Si863  1  0.778322  0.965334  0.392399  1
  Si  Si864  1  0.278321  0.534610  0.363833  1
  Si  Si865  1  0.465355  0.721685  0.363836  1
  Si  Si866  1  0.242532  0.637785  0.335392  1
  Si  Si867  1  0.362177  0.757448  0.335394  1
  Si  Si868  1  0.940682  0.940628  0.345905  1
  Si  Si869  1  0.940486  0.940435  0.383664  1
  Si  Si870  1  0.440683  0.559314  0.410326  1
  Si  Si871  1  0.748273  0.628969  0.469672  1
  Si  Si872  1  0.629023  0.748215  0.469673  1
  Si  Si873  1  0.748233  0.628978  0.409224  1
  Si  Si874  1  0.628993  0.748234  0.409225  1
  Si  Si875  1  0.281387  0.529989  0.458023  1
  Si  Si876  1  0.470007  0.718631  0.458023  1
  Si  Si877  1  0.281371  0.529983  0.420876  1
  Si  Si878  1  0.469982  0.718635  0.420876  1
  Si  Si879  1  0.862178  0.742496  0.420838  1
  Si  Si880  1  0.742532  0.862158  0.420839  1
  Si  Si881  1  0.862202  0.742501  0.458057  1
  Si  Si882  1  0.742547  0.862154  0.458058  1
  Si  Si883  1  0.440702  0.559310  0.468571  1
  Si  Si884  1  0.440512  0.559498  0.506330  1
  Si  Si885  1  0.940510  0.940436  0.495232  1
  Si  Si886  1  0.940703  0.940628  0.532991  1
  Si  Si887  1  0.362203  0.757437  0.543506  1
  Si  Si888  1  0.129023  0.751717  0.531890  1
  Si  Si889  1  0.248272  0.870965  0.531890  1
  Si  Si890  1  0.747789  0.628604  0.507150  1
  Si  Si891  1  0.628660  0.747732  0.507151  1
  Si  Si892  1  0.128659  0.752200  0.494412  1
  Si  Si893  1  0.247786  0.871331  0.494412  1
  Si  Si894  1  0.970009  0.781306  0.543540  1
  Si  Si895  1  0.781388  0.969946  0.543540  1
  Si  Si896  1  0.243917  0.635499  0.485858  1
  Si  Si897  1  0.364494  0.756081  0.485859  1
  Si  Si898  1  0.864496  0.743853  0.515704  1
  Si  Si899  1  0.743917  0.864433  0.515705  1
  Si  Si900  1  0.278347  0.534605  0.515064  1
  Si  Si901  1  0.465390  0.721668  0.515066  1
  Si  Si902  1  0.965390  0.778265  0.486497  1
  Si  Si903  1  0.778343  0.965326  0.486499  1
  Si  Si904  1  0.242551  0.637781  0.543504  1
  Si  Si905  1  0.559553  0.440440  0.617898  1
  Si  Si906  1  0.871048  0.248234  0.592337  1
  Si  Si907  1  0.751805  0.128981  0.592337  1
  Si  Si908  1  0.871411  0.247750  0.629815  1
  Si  Si909  1  0.752290  0.128614  0.629815  1
  Si  Si910  1  0.252289  0.371330  0.617078  1
  Si  Si911  1  0.371409  0.252194  0.617077  1
  Si  Si912  1  0.030060  0.218637  0.580688  1
  Si  Si913  1  0.218671  0.029989  0.580687  1
  Si  Si914  1  0.135579  0.256085  0.608523  1
  Si  Si915  1  0.256149  0.135496  0.608523  1
  Si  Si916  1  0.756151  0.364448  0.638370  1
  Si  Si917  1  0.635579  0.243860  0.638369  1
  Si  Si918  1  0.034680  0.221676  0.637729  1
  Si  Si919  1  0.221717  0.034606  0.637730  1
  Si  Si920  1  0.721716  0.465338  0.609163  1
  Si  Si921  1  0.534678  0.278268  0.609163  1
  Si  Si922  1  0.757515  0.362163  0.580723  1
  Si  Si923  1  0.637865  0.242504  0.580723  1
  Si  Si924  1  0.059358  0.059314  0.591236  1
  Si  Si925  1  0.059552  0.059502  0.628995  1
  Si  Si926  1  0.251815  0.370965  0.715004  1
  Si  Si927  1  0.371063  0.251717  0.715003  1
  Si  Si928  1  0.251805  0.370961  0.654556  1
  Si  Si929  1  0.371049  0.251708  0.654555  1
  Si  Si930  1  0.718696  0.469950  0.703352  1
  Si  Si931  1  0.530075  0.281309  0.703352  1
  Si  Si932  1  0.718676  0.469952  0.666206  1
  Si  Si933  1  0.530061  0.281306  0.666205  1
  Si  Si934  1  0.137866  0.257438  0.666170  1
  Si  Si935  1  0.257517  0.137780  0.666170  1
  Si  Si936  1  0.137876  0.257443  0.703389  1
  Si  Si937  1  0.257530  0.137788  0.703389  1
  Si  Si938  1  0.559383  0.440628  0.713902  1
  Si  Si939  1  0.559361  0.440629  0.655657  1
  Si  Si940  1  0.637878  0.242490  0.788835  1
  Si  Si941  1  0.059579  0.059501  0.740563  1
  Si  Si942  1  0.559579  0.440431  0.751661  1
  Si  Si943  1  0.059384  0.059308  0.778322  1
  Si  Si944  1  0.871063  0.248220  0.777221  1
  Si  Si945  1  0.751818  0.128969  0.777221  1
  Si  Si946  1  0.252304  0.371326  0.752481  1
  Si  Si947  1  0.371430  0.252196  0.752480  1
  Si  Si948  1  0.871428  0.247738  0.739743  1
  Si  Si949  1  0.752303  0.128607  0.739743  1
  Si  Si950  1  0.030075  0.218628  0.788872  1
  Si  Si951  1  0.218697  0.029986  0.788871  1
  Si  Si952  1  0.756172  0.364437  0.731187  1
  Si  Si953  1  0.635598  0.243853  0.731185  1
  Si  Si954  1  0.135597  0.256082  0.761038  1
  Si  Si955  1  0.256172  0.135499  0.761037  1
  Si  Si956  1  0.721746  0.465325  0.760394  1
  Si  Si957  1  0.534703  0.278257  0.760393  1
  Si  Si958  1  0.034701  0.221675  0.731831  1
  Si  Si959  1  0.221746  0.034610  0.731829  1
  Si  Si960  1  0.757529  0.362148  0.788835  1
  Si  Si961  1  0.440486  0.559509  0.617898  1
  Si  Si962  1  0.128994  0.751708  0.592338  1
  Si  Si963  1  0.248231  0.870966  0.592338  1
  Si  Si964  1  0.128626  0.752185  0.629815  1
  Si  Si965  1  0.247745  0.871323  0.629816  1
  Si  Si966  1  0.747745  0.628619  0.617078  1
  Si  Si967  1  0.628626  0.747757  0.617079  1
  Si  Si968  1  0.969982  0.781306  0.580687  1
  Si  Si969  1  0.781369  0.969958  0.580687  1
  Si  Si970  1  0.864454  0.743861  0.608520  1
  Si  Si971  1  0.743886  0.864451  0.608522  1
  Si  Si972  1  0.243886  0.635492  0.638373  1
  Si  Si973  1  0.364455  0.756082  0.638374  1
  Si  Si974  1  0.965354  0.778259  0.637727  1
  Si  Si975  1  0.778322  0.965334  0.637730  1
  Si  Si976  1  0.278321  0.534610  0.609164  1
  Si  Si977  1  0.465355  0.721685  0.609167  1
  Si  Si978  1  0.242532  0.637785  0.580723  1
  Si  Si979  1  0.362177  0.757448  0.580725  1
  Si  Si980  1  0.940682  0.940628  0.591236  1
  Si  Si981  1  0.940486  0.940435  0.628995  1
  Si  Si982  1  0.440683  0.559314  0.655657  1
  Si  Si983  1  0.748273  0.628969  0.715003  1
  Si  Si984  1  0.629023  0.748215  0.715004  1
  Si  Si985  1  0.748233  0.628978  0.654556  1
  Si  Si986  1  0.628993  0.748234  0.654556  1
  Si  Si987  1  0.281387  0.529989  0.703354  1
  Si  Si988  1  0.470007  0.718631  0.703355  1
  Si  Si989  1  0.281371  0.529983  0.666207  1
  Si  Si990  1  0.469982  0.718635  0.666207  1
  Si  Si991  1  0.862178  0.742496  0.666169  1
  Si  Si992  1  0.742532  0.862158  0.666171  1
  Si  Si993  1  0.862202  0.742501  0.703388  1
  Si  Si994  1  0.742547  0.862154  0.703389  1
  Si  Si995  1  0.440702  0.559310  0.713902  1
  Si  Si996  1  0.440512  0.559498  0.751661  1
  Si  Si997  1  0.940510  0.940436  0.740564  1
  Si  Si998  1  0.940703  0.940628  0.778322  1
  Si  Si999  1  0.362203  0.757437  0.788837  1
  Si  Si1000  1  0.129023  0.751717  0.777221  1
  Si  Si1001  1  0.248272  0.870965  0.777221  1
  Si  Si1002  1  0.747789  0.628604  0.752481  1
  Si  Si1003  1  0.628660  0.747732  0.752482  1
  Si  Si1004  1  0.128659  0.752200  0.739743  1
  Si  Si1005  1  0.247786  0.871331  0.739744  1
  Si  Si1006  1  0.970009  0.781306  0.788871  1
  Si  Si1007  1  0.781388  0.969946  0.788871  1
  Si  Si1008  1  0.243917  0.635499  0.731189  1
  Si  Si1009  1  0.364494  0.756081  0.731191  1
  Si  Si1010  1  0.864496  0.743853  0.761035  1
  Si  Si1011  1  0.743917  0.864433  0.761037  1
  Si  Si1012  1  0.278347  0.534605  0.760396  1
  Si  Si1013  1  0.465390  0.721668  0.760398  1
  Si  Si1014  1  0.965390  0.778265  0.731828  1
  Si  Si1015  1  0.778343  0.965326  0.731830  1
  Si  Si1016  1  0.242551  0.637781  0.788836  1
  H  H1017  1  0.045524  0.230840  0.060553  1
  H  H1018  1  0.618354  0.239487  0.060552  1
  H  H1019  1  0.230901  0.045440  0.060552  1
  H  H1020  1  0.760529  0.381675  0.060551  1
  H  H1021  1  0.381707  0.760455  0.060554  1
  H  H1022  1  0.239533  0.618262  0.060552  1
  H  H1023  1  0.954538  0.769097  0.060551  1
  H  H1024  1  0.769160  0.954500  0.060552  1
  H  H1025  1  0.045524  0.230840  0.818345  1
  H  H1026  1  0.618354  0.239487  0.818344  1
  H  H1027  1  0.230901  0.045440  0.818344  1
  H  H1028  1  0.760529  0.381675  0.818343  1
  H  H1029  1  0.381707  0.760455  0.818346  1
  H  H1030  1  0.239533  0.618262  0.818344  1
  H  H1031  1  0.954538  0.769097  0.818343  1
  H  H1032  1  0.769160  0.954500  0.818344  1
