# generated using pymatgen
data_Si34H6O71
_symmetry_space_group_name_H-M   'P 1'
_cell_length_a   27.13270649
_cell_length_b   27.13690969
_cell_length_c   75.47312956
_cell_angle_alpha   90.00000000
_cell_angle_beta   45.02703986
_cell_angle_gamma   59.97390214
_symmetry_Int_Tables_number   1
_chemical_formula_structural   Si34H6O71
_chemical_formula_sum   'Si272 H48 O568'
_cell_volume   27789.6485655
_cell_formula_units_Z   8
loop_
 _symmetry_equiv_pos_site_id
 _symmetry_equiv_pos_as_xyz
  1  'x, y, z'
loop_
 _atom_site_type_symbol
 _atom_site_label
 _atom_site_symmetry_multiplicity
 _atom_site_fract_x
 _atom_site_fract_y
 _atom_site_fract_z
 _atom_site_occupancy
  O  O1  1  0.352792  0.145204  0.128775  1
  O  O2  1  0.512461  0.332627  0.128038  1
  O  O3  1  0.163343  0.497130  0.129577  1
  O  O4  1  0.352804  0.650192  0.127771  1
  O  O5  1  0.013426  0.333933  0.128548  1
  O  O6  1  0.163405  0.000000  0.129273  1
  O  O7  1  0.852937  0.144869  0.128229  1
  O  O8  1  0.658918  0.000000  0.130149  1
  O  O9  1  0.662593  0.497239  0.129863  1
  O  O10  1  0.849814  0.653497  0.128909  1
  O  O11  1  0.517490  0.843074  0.127741  1
  O  O12  1  0.017872  0.836695  0.126623  1
  O  O13  1  0.647924  0.294469  0.232830  1
  O  O14  1  0.666129  0.042939  0.232855  1
  O  O15  1  0.909668  0.050903  0.229617  1
  O  O16  1  0.518938  0.041712  0.328176  1
  O  O17  1  0.008345  0.289331  0.206770  1
  O  O18  1  0.234705  0.305733  0.336891  1
  O  O19  1  0.647535  0.047658  0.337984  1
  O  O20  1  0.662945  0.293122  0.328941  1
  O  O21  1  0.893790  0.312631  0.211693  1
  O  O22  1  0.515401  0.293313  0.307916  1
  O  O23  1  0.001134  0.043716  0.179896  1
  O  O24  1  0.231159  0.053848  0.187942  1
  O  O25  1  0.850298  0.201063  0.286635  1
  O  O26  1  0.493673  0.209928  0.310045  1
  O  O27  1  0.266747  0.191457  0.180146  1
  O  O28  1  0.835887  0.210039  0.188086  1
  O  O29  1  0.612977  0.185303  0.302952  1
  O  O30  1  0.976691  0.211466  0.212413  1
  O  O31  1  0.515738  0.087903  0.254907  1
  O  O32  1  0.910632  0.090046  0.259442  1
  O  O33  1  0.433132  0.161753  0.339520  1
  O  O34  1  0.166297  0.247691  0.177682  1
  O  O35  1  0.333008  0.003058  0.134304  1
  O  O36  1  0.592518  0.249103  0.335159  1
  O  O37  1  0.490419  0.166800  0.133550  1
  O  O38  1  0.144570  0.103425  0.180699  1
  O  O39  1  0.599945  0.152171  0.336271  1
  O  O40  1  0.913181  0.249482  0.179763  1
  O  O41  1  0.352792  0.145204  0.382861  1
  O  O42  1  0.335679  0.251593  0.339240  1
  O  O43  1  0.057646  0.093724  0.180064  1
  O  O44  1  0.499771  0.126581  0.290908  1
  O  O45  1  0.756188  0.121867  0.288207  1
  O  O46  1  0.501577  0.123371  0.353773  1
  O  O47  1  0.001060  0.122890  0.162148  1
  O  O48  1  0.245799  0.125901  0.166345  1
  O  O49  1  0.993857  0.128040  0.228280  1
  O  O50  1  0.649541  0.173900  0.261002  1
  O  O51  1  0.755285  0.167927  0.212079  1
  O  O52  1  0.766815  0.069424  0.210890  1
  O  O53  1  0.834244  0.088506  0.218663  1
  O  O54  1  0.761716  0.321142  0.299485  1
  O  O55  1  0.512461  0.332627  0.382124  1
  O  O56  1  0.666369  0.537859  0.229334  1
  O  O57  1  0.892424  0.560198  0.233629  1
  O  O58  1  0.519390  0.539812  0.328314  1
  O  O59  1  0.652457  0.548115  0.336067  1
  O  O60  1  0.005485  0.541090  0.181150  1
  O  O61  1  0.234736  0.562871  0.188810  1
  O  O62  1  0.839083  0.451178  0.283549  1
  O  O63  1  0.599724  0.439243  0.285945  1
  O  O64  1  0.983019  0.457865  0.188884  1
  O  O65  1  0.854731  0.453530  0.178286  1
  O  O66  1  0.493834  0.459598  0.338585  1
  O  O67  1  0.263735  0.448200  0.330212  1
  O  O68  1  0.988849  0.409303  0.261103  1
  O  O69  1  0.587953  0.502158  0.262924  1
  O  O70  1  0.895514  0.599284  0.262687  1
  O  O71  1  0.442818  0.655728  0.335776  1
  O  O72  1  0.148257  0.354212  0.134072  1
  O  O73  1  0.900125  0.349179  0.179988  1
  O  O74  1  0.432196  0.412398  0.340167  1
  O  O75  1  0.163343  0.497130  0.383663  1
  O  O76  1  0.146454  0.603139  0.181965  1
  O  O77  1  0.593164  0.405818  0.256974  1
  O  O78  1  0.906670  0.500063  0.257283  1
  O  O79  1  0.585748  0.662393  0.342399  1
  O  O80  1  0.843796  0.335990  0.256332  1
  O  O81  1  0.352804  0.650192  0.381857  1
  O  O82  1  0.069361  0.337179  0.177070  1
  O  O83  1  0.350562  0.399417  0.337501  1
  O  O84  1  0.333592  0.503932  0.135808  1
  O  O85  1  0.065912  0.591191  0.178253  1
  O  O86  1  0.502338  0.374374  0.290792  1
  O  O87  1  0.507252  0.627507  0.287615  1
  O  O88  1  0.743849  0.625379  0.291581  1
  O  O89  1  0.508711  0.620521  0.350769  1
  O  O90  1  0.002426  0.373083  0.225603  1
  O  O91  1  0.253971  0.373577  0.350507  1
  O  O92  1  0.497345  0.378025  0.355266  1
  O  O93  1  0.748219  0.374599  0.227743  1
  O  O94  1  0.001103  0.620596  0.162790  1
  O  O95  1  0.248490  0.628778  0.164148  1
  O  O96  1  0.995645  0.624919  0.227699  1
  O  O97  1  0.997701  0.377402  0.163958  1
  O  O98  1  0.734076  0.427278  0.307941  1
  O  O99  1  0.659154  0.414643  0.302075  1
  O  O100  1  0.751144  0.573315  0.216542  1
  O  O101  1  0.846923  0.580792  0.212953  1
  O  O102  1  0.007890  0.586654  0.256383  1
  O  O103  1  0.013426  0.333933  0.382634  1
  O  O104  1  0.488090  0.408523  0.261874  1
  O  O105  1  0.507060  0.585951  0.257293  1
  O  O106  1  0.485988  0.657838  0.134859  1
  O  O107  1  0.662139  0.664832  0.263144  1
  O  O108  1  0.648441  0.794488  0.231485  1
  O  O109  1  0.005162  0.789831  0.207851  1
  O  O110  1  0.231860  0.807558  0.338426  1
  O  O111  1  0.665032  0.799986  0.327442  1
  O  O112  1  0.913302  0.798239  0.204513  1
  O  O113  1  0.519159  0.792565  0.305203  1
  O  O114  1  0.851378  0.704813  0.285994  1
  O  O115  1  0.837304  0.958131  0.288475  1
  O  O116  1  0.606555  0.939197  0.284303  1
  O  O117  1  0.980533  0.960658  0.186752  1
  O  O118  1  0.494449  0.711244  0.309690  1
  O  O119  1  0.262906  0.699147  0.179683  1
  O  O120  1  0.852738  0.950296  0.178834  1
  O  O121  1  0.835688  0.700826  0.188975  1
  O  O122  1  0.588136  0.702734  0.312216  1
  O  O123  1  0.980143  0.708598  0.212133  1
  O  O124  1  0.491053  0.961530  0.337494  1
  O  O125  1  0.259937  0.940381  0.330565  1
  O  O126  1  0.163405  0.000000  0.383359  1
  O  O127  1  0.163288  0.751666  0.177035  1
  O  O128  1  0.149428  0.845827  0.135182  1
  O  O129  1  0.593189  0.753005  0.338237  1
  O  O130  1  0.911603  0.838808  0.174909  1
  O  O131  1  0.433769  0.910381  0.338688  1
  O  O132  1  0.605417  0.899206  0.254743  1
  O  O133  1  0.906723  0.747357  0.179362  1
  O  O134  1  0.338235  0.749094  0.338542  1
  O  O135  1  0.047010  0.851973  0.184543  1
  O  O136  1  0.351015  0.897834  0.336364  1
  O  O137  1  0.500575  0.876452  0.289915  1
  O  O138  1  0.996308  0.869630  0.230013  1
  O  O139  1  0.244663  0.875609  0.355647  1
  O  O140  1  0.497864  0.879495  0.354347  1
  O  O141  1  0.755463  0.874971  0.226270  1
  O  O142  1  0.995491  0.875000  0.164770  1
  O  O143  1  0.590865  0.000000  0.261073  1
  O  O144  1  0.748118  0.927808  0.300650  1
  O  O145  1  0.652568  0.918415  0.304788  1
  O  O146  1  0.734732  0.674059  0.218330  1
  O  O147  1  0.837072  0.836435  0.253988  1
  O  O148  1  0.769074  0.824599  0.298016  1
  O  O149  1  0.913920  0.994768  0.255411  1
  O  O150  1  0.147426  0.292830  0.232123  1
  O  O151  1  0.162229  0.046324  0.233542  1
  O  O152  1  0.401170  0.060228  0.231802  1
  O  O153  1  0.019744  0.041673  0.327503  1
  O  O154  1  0.505490  0.291102  0.207589  1
  O  O155  1  0.733769  0.305098  0.337478  1
  O  O156  1  0.146989  0.046134  0.338406  1
  O  O157  1  0.166307  0.288626  0.328469  1
  O  O158  1  0.392592  0.312592  0.212175  1
  O  O159  1  0.019349  0.290527  0.305992  1
  O  O160  1  0.495412  0.048587  0.181374  1
  O  O161  1  0.731053  0.057089  0.189202  1
  O  O162  1  0.354097  0.203438  0.285233  1
  O  O163  1  0.995633  0.208699  0.309014  1
  O  O164  1  0.762313  0.200825  0.180061  1
  O  O165  1  0.335295  0.212483  0.187334  1
  O  O166  1  0.108512  0.187291  0.304645  1
  O  O167  1  0.478424  0.210833  0.212231  1
  O  O168  1  0.989097  0.165544  0.134128  1
  O  O169  1  0.407543  0.093548  0.260759  1
  O  O170  1  0.934295  0.162214  0.339292  1
  O  O171  1  0.665783  0.248297  0.176250  1
  O  O172  1  0.086643  0.250574  0.337554  1
  O  O173  1  0.646758  0.103159  0.180736  1
  O  O174  1  0.014512  0.086988  0.255130  1
  O  O175  1  0.099378  0.150936  0.336870  1
  O  O176  1  0.412647  0.250832  0.179709  1
  O  O177  1  0.852937  0.144869  0.382315  1
  O  O178  1  0.835124  0.252522  0.339634  1
  O  O179  1  0.560094  0.093949  0.179214  1
  O  O180  1  0.997226  0.126778  0.291413  1
  O  O181  1  0.251648  0.125718  0.289899  1
  O  O182  1  0.001694  0.122003  0.353913  1
  O  O183  1  0.499196  0.125059  0.162405  1
  O  O184  1  0.743781  0.129225  0.167730  1
  O  O185  1  0.497502  0.125868  0.227184  1
  O  O186  1  0.155923  0.167960  0.260432  1
  O  O187  1  0.259800  0.169069  0.213857  1
  O  O188  1  0.260948  0.075539  0.210138  1
  O  O189  1  0.341912  0.074424  0.216113  1
  O  O190  1  0.252057  0.325847  0.301134  1
  O  O191  1  0.834289  0.005409  0.135447  1
  O  O192  1  0.658918  0.000000  0.384235  1
  O  O193  1  0.166949  0.536693  0.229296  1
  O  O194  1  0.399159  0.556356  0.232594  1
  O  O195  1  0.012022  0.542452  0.329432  1
  O  O196  1  0.152904  0.549324  0.336055  1
  O  O197  1  0.501233  0.542447  0.181076  1
  O  O198  1  0.737167  0.560409  0.187636  1
  O  O199  1  0.339372  0.450800  0.283424  1
  O  O200  1  0.096314  0.440821  0.286165  1
  O  O201  1  0.477796  0.460497  0.189238  1
  O  O202  1  0.355116  0.453022  0.177750  1
  O  O203  1  0.996262  0.457294  0.337922  1
  O  O204  1  0.764220  0.448451  0.330301  1
  O  O205  1  0.984317  0.659077  0.134877  1
  O  O206  1  0.086312  0.500949  0.262146  1
  O  O207  1  0.395160  0.599581  0.263219  1
  O  O208  1  0.941856  0.657182  0.336244  1
  O  O209  1  0.647563  0.355322  0.134704  1
  O  O210  1  0.400421  0.349789  0.180232  1
  O  O211  1  0.938591  0.407678  0.338326  1
  O  O212  1  0.662593  0.497239  0.383949  1
  O  O213  1  0.648082  0.600936  0.181053  1
  O  O214  1  0.096590  0.402185  0.255773  1
  O  O215  1  0.408803  0.498941  0.257463  1
  O  O216  1  0.083806  0.663105  0.341722  1
  O  O217  1  0.849814  0.653497  0.382995  1
  O  O218  1  0.561953  0.341131  0.178482  1
  O  O219  1  0.850955  0.398488  0.337658  1
  O  O220  1  0.835811  0.500202  0.134620  1
  O  O221  1  0.564078  0.588633  0.179308  1
  O  O222  1  0.001315  0.373842  0.290256  1
  O  O223  1  0.008229  0.624674  0.287428  1
  O  O224  1  0.246279  0.623210  0.291044  1
  O  O225  1  0.010683  0.617201  0.350282  1
  O  O226  1  0.504003  0.372394  0.225505  1
  O  O227  1  0.753009  0.374176  0.350602  1
  O  O228  1  0.000000  0.376580  0.354807  1
  O  O229  1  0.247803  0.375469  0.227836  1
  O  O230  1  0.500978  0.622534  0.163393  1
  O  O231  1  0.753044  0.624288  0.162110  1
  O  O232  1  0.497974  0.623560  0.227896  1
  O  O233  1  0.500496  0.377151  0.162062  1
  O  O234  1  0.231956  0.428916  0.308234  1
  O  O235  1  0.158576  0.418516  0.301152  1
  O  O236  1  0.252152  0.571747  0.217001  1
  O  O237  1  0.336445  0.586800  0.217496  1
  O  O238  1  0.251245  0.664544  0.212232  1
  O  O239  1  0.343227  0.335303  0.256748  1
  O  O240  1  0.148337  0.791644  0.233043  1
  O  O241  1  0.502802  0.788912  0.209559  1
  O  O242  1  0.734303  0.809120  0.337285  1
  O  O243  1  0.166529  0.795846  0.327234  1
  O  O244  1  0.412206  0.799185  0.205452  1
  O  O245  1  0.006170  0.798140  0.310168  1
  O  O246  1  0.352391  0.704700  0.286133  1
  O  O247  1  0.335664  0.960276  0.288048  1
  O  O248  1  0.112001  0.937131  0.283048  1
  O  O249  1  0.496365  0.954727  0.186616  1
  O  O250  1  0.994977  0.710090  0.308798  1
  O  O251  1  0.764330  0.691760  0.180182  1
  O  O252  1  0.348208  0.953242  0.180350  1
  O  O253  1  0.335625  0.704297  0.189163  1
  O  O254  1  0.100328  0.692827  0.307226  1
  O  O255  1  0.480246  0.706602  0.212022  1
  O  O256  1  0.990537  0.962449  0.336958  1
  O  O257  1  0.753806  0.941725  0.331863  1
  O  O258  1  0.660953  0.750567  0.179007  1
  O  O259  1  0.652685  0.842832  0.133903  1
  O  O260  1  0.091839  0.753080  0.335824  1
  O  O261  1  0.416689  0.839642  0.174785  1
  O  O262  1  0.925532  0.915134  0.341629  1
  O  O263  1  0.109331  0.896514  0.254161  1
  O  O264  1  0.517490  0.843074  0.381827  1
  O  O265  1  0.411395  0.747977  0.178131  1
  O  O266  1  0.017872  0.836695  0.380709  1
  O  O267  1  0.839986  0.747076  0.337472  1
  O  O268  1  0.555089  0.841957  0.181707  1
  O  O269  1  0.846124  0.904380  0.337017  1
  O  O270  1  0.495156  0.912848  0.259688  1
  O  O271  1  0.003586  0.875415  0.290885  1
  O  O272  1  0.493330  0.872897  0.229598  1
  O  O273  1  0.747650  0.874239  0.355562  1
  O  O274  1  0.000000  0.880854  0.354004  1
  O  O275  1  0.258491  0.875003  0.225098  1
  O  O276  1  0.487874  0.886403  0.167331  1
  O  O277  1  0.150522  0.678086  0.262659  1
  O  O278  1  0.250358  0.925642  0.300515  1
  O  O279  1  0.150465  0.919796  0.305879  1
  O  O280  1  0.996326  0.910301  0.260658  1
  O  O281  1  0.335413  0.833744  0.255011  1
  O  O282  1  0.263950  0.826005  0.300059  1
  O  O283  1  0.092381  0.998955  0.260634  1
  O  O284  1  0.411022  0.998144  0.255248  1
  O  O285  1  0.647924  0.294469  0.486916  1
  O  O286  1  0.666129  0.042939  0.486941  1
  O  O287  1  0.909668  0.050903  0.483703  1
  O  O288  1  0.518938  0.041712  0.582262  1
  O  O289  1  0.008345  0.289331  0.460856  1
  O  O290  1  0.234705  0.305733  0.590977  1
  O  O291  1  0.647535  0.047658  0.592070  1
  O  O292  1  0.662945  0.293122  0.583027  1
  O  O293  1  0.893790  0.312631  0.465779  1
  O  O294  1  0.515401  0.293313  0.562002  1
  O  O295  1  0.001134  0.043716  0.433982  1
  O  O296  1  0.231159  0.053848  0.442028  1
  O  O297  1  0.850298  0.201063  0.540721  1
  O  O298  1  0.493673  0.209928  0.564131  1
  O  O299  1  0.266747  0.191457  0.434232  1
  O  O300  1  0.835887  0.210039  0.442172  1
  O  O301  1  0.612977  0.185303  0.557038  1
  O  O302  1  0.976691  0.211466  0.466499  1
  O  O303  1  0.515738  0.087903  0.508993  1
  O  O304  1  0.910632  0.090046  0.513528  1
  O  O305  1  0.433132  0.161753  0.593606  1
  O  O306  1  0.166297  0.247691  0.431768  1
  O  O307  1  0.333008  0.003058  0.388390  1
  O  O308  1  0.592518  0.249103  0.589245  1
  O  O309  1  0.490419  0.166800  0.387636  1
  O  O310  1  0.144570  0.103425  0.434785  1
  O  O311  1  0.599945  0.152171  0.590357  1
  O  O312  1  0.913181  0.249482  0.433849  1
  O  O313  1  0.352792  0.145204  0.636947  1
  O  O314  1  0.335679  0.251593  0.593326  1
  O  O315  1  0.057646  0.093724  0.434150  1
  O  O316  1  0.499771  0.126581  0.544994  1
  O  O317  1  0.756188  0.121867  0.542293  1
  O  O318  1  0.501577  0.123371  0.607859  1
  O  O319  1  0.001060  0.122890  0.416234  1
  O  O320  1  0.245799  0.125901  0.420431  1
  O  O321  1  0.993857  0.128040  0.482366  1
  O  O322  1  0.649541  0.173900  0.515088  1
  O  O323  1  0.755285  0.167927  0.466165  1
  O  O324  1  0.766815  0.069424  0.464976  1
  O  O325  1  0.834244  0.088506  0.472749  1
  O  O326  1  0.761716  0.321142  0.553571  1
  O  O327  1  0.512461  0.332627  0.636210  1
  O  O328  1  0.666369  0.537859  0.483420  1
  O  O329  1  0.892424  0.560198  0.487715  1
  O  O330  1  0.519390  0.539812  0.582400  1
  O  O331  1  0.652457  0.548115  0.590153  1
  O  O332  1  0.005485  0.541090  0.435236  1
  O  O333  1  0.234736  0.562871  0.442896  1
  O  O334  1  0.839083  0.451178  0.537635  1
  O  O335  1  0.599724  0.439243  0.540031  1
  O  O336  1  0.983019  0.457865  0.442970  1
  O  O337  1  0.854731  0.453530  0.432372  1
  O  O338  1  0.493834  0.459598  0.592671  1
  O  O339  1  0.263735  0.448200  0.584298  1
  O  O340  1  0.988849  0.409303  0.515189  1
  O  O341  1  0.587953  0.502158  0.517010  1
  O  O342  1  0.895514  0.599284  0.516773  1
  O  O343  1  0.442818  0.655728  0.589862  1
  O  O344  1  0.148257  0.354212  0.388158  1
  O  O345  1  0.900125  0.349179  0.434074  1
  O  O346  1  0.432196  0.412398  0.594253  1
  O  O347  1  0.163343  0.497130  0.637749  1
  O  O348  1  0.146454  0.603139  0.436051  1
  O  O349  1  0.593164  0.405818  0.511060  1
  O  O350  1  0.906670  0.500063  0.511369  1
  O  O351  1  0.585748  0.662393  0.596485  1
  O  O352  1  0.843796  0.335990  0.510418  1
  O  O353  1  0.352804  0.650192  0.635943  1
  O  O354  1  0.069361  0.337179  0.431156  1
  O  O355  1  0.350562  0.399417  0.591587  1
  O  O356  1  0.333592  0.503932  0.389894  1
  O  O357  1  0.065912  0.591191  0.432339  1
  O  O358  1  0.502338  0.374374  0.544878  1
  O  O359  1  0.507252  0.627507  0.541701  1
  O  O360  1  0.743849  0.625379  0.545667  1
  O  O361  1  0.508711  0.620521  0.604855  1
  O  O362  1  0.002426  0.373083  0.479689  1
  O  O363  1  0.253971  0.373577  0.604593  1
  O  O364  1  0.497345  0.378025  0.609352  1
  O  O365  1  0.748219  0.374599  0.481829  1
  O  O366  1  0.001103  0.620596  0.416876  1
  O  O367  1  0.248490  0.628778  0.418234  1
  O  O368  1  0.995645  0.624919  0.481785  1
  O  O369  1  0.997701  0.377402  0.418044  1
  O  O370  1  0.734076  0.427278  0.562027  1
  O  O371  1  0.659154  0.414643  0.556161  1
  O  O372  1  0.751144  0.573315  0.470628  1
  O  O373  1  0.846923  0.580792  0.467039  1
  O  O374  1  0.007890  0.586654  0.510469  1
  O  O375  1  0.013426  0.333933  0.636720  1
  O  O376  1  0.488090  0.408523  0.515959  1
  O  O377  1  0.507060  0.585951  0.511379  1
  O  O378  1  0.485988  0.657838  0.388945  1
  O  O379  1  0.662139  0.664832  0.517230  1
  O  O380  1  0.648441  0.794488  0.485571  1
  O  O381  1  0.005162  0.789831  0.461937  1
  O  O382  1  0.231860  0.807558  0.592512  1
  O  O383  1  0.665032  0.799986  0.581528  1
  O  O384  1  0.913302  0.798239  0.458599  1
  O  O385  1  0.519159  0.792565  0.559289  1
  O  O386  1  0.851378  0.704813  0.540080  1
  O  O387  1  0.837304  0.958131  0.542561  1
  O  O388  1  0.606555  0.939197  0.538389  1
  O  O389  1  0.980533  0.960658  0.440838  1
  O  O390  1  0.494449  0.711244  0.563776  1
  O  O391  1  0.262906  0.699147  0.433769  1
  O  O392  1  0.852738  0.950296  0.432920  1
  O  O393  1  0.835688  0.700826  0.443061  1
  O  O394  1  0.588136  0.702734  0.566302  1
  O  O395  1  0.980143  0.708598  0.466219  1
  O  O396  1  0.491053  0.961530  0.591580  1
  O  O397  1  0.259937  0.940381  0.584651  1
  O  O398  1  0.163405  0.000000  0.637445  1
  O  O399  1  0.163288  0.751666  0.431121  1
  O  O400  1  0.149428  0.845827  0.389268  1
  O  O401  1  0.593189  0.753005  0.592322  1
  O  O402  1  0.911603  0.838808  0.428995  1
  O  O403  1  0.433769  0.910381  0.592774  1
  O  O404  1  0.605417  0.899206  0.508829  1
  O  O405  1  0.906723  0.747357  0.433448  1
  O  O406  1  0.338235  0.749094  0.592628  1
  O  O407  1  0.047010  0.851973  0.438629  1
  O  O408  1  0.351015  0.897834  0.590450  1
  O  O409  1  0.500575  0.876452  0.544001  1
  O  O410  1  0.996308  0.869630  0.484099  1
  O  O411  1  0.244663  0.875609  0.609733  1
  O  O412  1  0.497864  0.879495  0.608433  1
  O  O413  1  0.755463  0.874971  0.480356  1
  O  O414  1  0.995491  0.875000  0.418856  1
  O  O415  1  0.590865  0.000000  0.515159  1
  O  O416  1  0.748118  0.927808  0.554736  1
  O  O417  1  0.652568  0.918415  0.558874  1
  O  O418  1  0.734732  0.674059  0.472416  1
  O  O419  1  0.837072  0.836435  0.508074  1
  O  O420  1  0.769074  0.824599  0.552102  1
  O  O421  1  0.913920  0.994768  0.509497  1
  O  O422  1  0.147426  0.292830  0.486209  1
  O  O423  1  0.162229  0.046324  0.487628  1
  O  O424  1  0.401170  0.060228  0.485888  1
  O  O425  1  0.019744  0.041673  0.581589  1
  O  O426  1  0.505490  0.291102  0.461675  1
  O  O427  1  0.733769  0.305098  0.591564  1
  O  O428  1  0.146989  0.046134  0.592492  1
  O  O429  1  0.166307  0.288626  0.582555  1
  O  O430  1  0.392592  0.312592  0.466261  1
  O  O431  1  0.019349  0.290527  0.560078  1
  O  O432  1  0.495412  0.048587  0.435460  1
  O  O433  1  0.731053  0.057089  0.443288  1
  O  O434  1  0.354097  0.203438  0.539319  1
  O  O435  1  0.995633  0.208699  0.563100  1
  O  O436  1  0.762313  0.200825  0.434147  1
  O  O437  1  0.335295  0.212483  0.441420  1
  O  O438  1  0.108512  0.187291  0.558731  1
  O  O439  1  0.478424  0.210833  0.466317  1
  O  O440  1  0.989097  0.165544  0.388214  1
  O  O441  1  0.407543  0.093548  0.514845  1
  O  O442  1  0.934295  0.162214  0.593378  1
  O  O443  1  0.665783  0.248297  0.430336  1
  O  O444  1  0.086643  0.250574  0.591640  1
  O  O445  1  0.646758  0.103159  0.434822  1
  O  O446  1  0.014512  0.086988  0.509216  1
  O  O447  1  0.099378  0.150936  0.590956  1
  O  O448  1  0.412647  0.250832  0.433795  1
  O  O449  1  0.852937  0.144869  0.636401  1
  O  O450  1  0.835124  0.252522  0.593720  1
  O  O451  1  0.560094  0.093949  0.433300  1
  O  O452  1  0.997226  0.126778  0.545499  1
  O  O453  1  0.251648  0.125718  0.543985  1
  O  O454  1  0.001694  0.122003  0.607999  1
  O  O455  1  0.499196  0.125059  0.416491  1
  O  O456  1  0.743781  0.129225  0.421816  1
  O  O457  1  0.497502  0.125868  0.481270  1
  O  O458  1  0.155923  0.167960  0.514518  1
  O  O459  1  0.259800  0.169069  0.467943  1
  O  O460  1  0.260948  0.075539  0.464224  1
  O  O461  1  0.341912  0.074424  0.470199  1
  O  O462  1  0.252057  0.325847  0.555220  1
  O  O463  1  0.834289  0.005409  0.389533  1
  O  O464  1  0.658918  0.000000  0.638321  1
  O  O465  1  0.166949  0.536693  0.483382  1
  O  O466  1  0.399159  0.556356  0.486680  1
  O  O467  1  0.012022  0.542452  0.583518  1
  O  O468  1  0.152904  0.549324  0.590141  1
  O  O469  1  0.501233  0.542447  0.435162  1
  O  O470  1  0.737167  0.560409  0.441722  1
  O  O471  1  0.339372  0.450800  0.537510  1
  O  O472  1  0.096314  0.440821  0.540251  1
  O  O473  1  0.477796  0.460497  0.443324  1
  O  O474  1  0.355116  0.453022  0.431836  1
  O  O475  1  0.996262  0.457294  0.592008  1
  O  O476  1  0.764220  0.448451  0.584387  1
  O  O477  1  0.984317  0.659077  0.388963  1
  O  O478  1  0.086312  0.500949  0.516232  1
  O  O479  1  0.395160  0.599581  0.517305  1
  O  O480  1  0.941856  0.657182  0.590330  1
  O  O481  1  0.647563  0.355322  0.388790  1
  O  O482  1  0.400421  0.349789  0.434318  1
  O  O483  1  0.938591  0.407678  0.592412  1
  O  O484  1  0.662593  0.497239  0.638035  1
  O  O485  1  0.648082  0.600936  0.435139  1
  O  O486  1  0.096590  0.402185  0.509859  1
  O  O487  1  0.408803  0.498941  0.511549  1
  O  O488  1  0.083806  0.663105  0.595808  1
  O  O489  1  0.849814  0.653497  0.637081  1
  O  O490  1  0.561953  0.341131  0.432568  1
  O  O491  1  0.850955  0.398488  0.591744  1
  O  O492  1  0.835811  0.500202  0.388706  1
  O  O493  1  0.564078  0.588633  0.433394  1
  O  O494  1  0.001315  0.373842  0.544342  1
  O  O495  1  0.008229  0.624674  0.541514  1
  O  O496  1  0.246279  0.623210  0.545130  1
  O  O497  1  0.010683  0.617201  0.604368  1
  O  O498  1  0.504003  0.372394  0.479591  1
  O  O499  1  0.753009  0.374176  0.604688  1
  O  O500  1  0.000000  0.376580  0.608893  1
  O  O501  1  0.247803  0.375469  0.481922  1
  O  O502  1  0.500978  0.622534  0.417479  1
  O  O503  1  0.753044  0.624288  0.416196  1
  O  O504  1  0.497974  0.623560  0.481982  1
  O  O505  1  0.500496  0.377151  0.416148  1
  O  O506  1  0.231956  0.428916  0.562320  1
  O  O507  1  0.158576  0.418516  0.555238  1
  O  O508  1  0.252152  0.571747  0.471087  1
  O  O509  1  0.336445  0.586800  0.471582  1
  O  O510  1  0.251245  0.664544  0.466318  1
  O  O511  1  0.343227  0.335303  0.510834  1
  O  O512  1  0.148337  0.791644  0.487129  1
  O  O513  1  0.502802  0.788912  0.463645  1
  O  O514  1  0.734303  0.809120  0.591371  1
  O  O515  1  0.166529  0.795846  0.581320  1
  O  O516  1  0.412206  0.799185  0.459538  1
  O  O517  1  0.006170  0.798140  0.564254  1
  O  O518  1  0.352391  0.704700  0.540219  1
  O  O519  1  0.335664  0.960276  0.542134  1
  O  O520  1  0.112001  0.937131  0.537134  1
  O  O521  1  0.496365  0.954727  0.440702  1
  O  O522  1  0.994977  0.710090  0.562884  1
  O  O523  1  0.764330  0.691760  0.434268  1
  O  O524  1  0.348208  0.953242  0.434436  1
  O  O525  1  0.335625  0.704297  0.443249  1
  O  O526  1  0.100328  0.692827  0.561312  1
  O  O527  1  0.480246  0.706602  0.466108  1
  O  O528  1  0.990537  0.962449  0.591044  1
  O  O529  1  0.753806  0.941725  0.585949  1
  O  O530  1  0.660953  0.750567  0.433093  1
  O  O531  1  0.652685  0.842832  0.387989  1
  O  O532  1  0.091839  0.753080  0.589910  1
  O  O533  1  0.416689  0.839642  0.428871  1
  O  O534  1  0.925532  0.915134  0.595715  1
  O  O535  1  0.109331  0.896514  0.508247  1
  O  O536  1  0.517490  0.843074  0.635913  1
  O  O537  1  0.411395  0.747977  0.432217  1
  O  O538  1  0.017872  0.836695  0.634795  1
  O  O539  1  0.839986  0.747076  0.591558  1
  O  O540  1  0.555089  0.841957  0.435793  1
  O  O541  1  0.846124  0.904380  0.591103  1
  O  O542  1  0.495156  0.912848  0.513774  1
  O  O543  1  0.003586  0.875415  0.544971  1
  O  O544  1  0.493330  0.872897  0.483684  1
  O  O545  1  0.747650  0.874239  0.609648  1
  O  O546  1  0.000000  0.880854  0.608090  1
  O  O547  1  0.258491  0.875003  0.479184  1
  O  O548  1  0.487874  0.886403  0.421417  1
  O  O549  1  0.150522  0.678086  0.516745  1
  O  O550  1  0.250358  0.925642  0.554601  1
  O  O551  1  0.150465  0.919796  0.559965  1
  O  O552  1  0.996326  0.910301  0.514744  1
  O  O553  1  0.335413  0.833744  0.509097  1
  O  O554  1  0.263950  0.826005  0.554145  1
  O  O555  1  0.092381  0.998955  0.514720  1
  O  O556  1  0.411022  0.998144  0.509334  1
  O  O557  1  0.333008  0.003058  0.642476  1
  O  O558  1  0.490419  0.166800  0.641722  1
  O  O559  1  0.148257  0.354212  0.642244  1
  O  O560  1  0.333592  0.503932  0.643980  1
  O  O561  1  0.485988  0.657838  0.643031  1
  O  O562  1  0.149428  0.845827  0.643354  1
  O  O563  1  0.989097  0.165544  0.642300  1
  O  O564  1  0.834289  0.005409  0.643619  1
  O  O565  1  0.984317  0.659077  0.643049  1
  O  O566  1  0.647563  0.355322  0.642876  1
  O  O567  1  0.835811  0.500202  0.642792  1
  O  O568  1  0.652685  0.842832  0.642075  1
  Si  Si569  1  0.751156  0.125088  0.225753  1
  Si  Si570  1  0.751706  0.279028  0.313519  1
  Si  Si571  1  0.566471  0.065024  0.260518  1
  Si  Si572  1  0.871168  0.064936  0.258716  1
  Si  Si573  1  0.451377  0.118934  0.351273  1
  Si  Si574  1  0.061988  0.312199  0.196788  1
  Si  Si575  1  0.243459  0.321637  0.353875  1
  Si  Si576  1  0.558607  0.123369  0.353999  1
  Si  Si577  1  0.565381  0.313277  0.350448  1
  Si  Si578  1  0.862612  0.322150  0.199904  1
  Si  Si579  1  0.056621  0.065259  0.162568  1
  Si  Si580  1  0.238872  0.072078  0.166978  1
  Si  Si581  1  0.944075  0.125782  0.256801  1
  Si  Si582  1  0.440410  0.186888  0.319850  1
  Si  Si583  1  0.258020  0.176925  0.162978  1
  Si  Si584  1  0.935953  0.186590  0.165866  1
  Si  Si585  1  0.641724  0.176561  0.315535  1
  Si  Si586  1  0.042942  0.133534  0.200560  1
  Si  Si587  1  0.565642  0.216643  0.296360  1
  Si  Si588  1  0.750200  0.219848  0.203082  1
  Si  Si589  1  0.933130  0.285937  0.220896  1
  Si  Si590  1  0.754141  0.028649  0.202636  1
  Si  Si591  1  0.933913  0.034554  0.203394  1
  Si  Si592  1  0.749464  0.374885  0.291515  1
  Si  Si593  1  0.748588  0.623396  0.227786  1
  Si  Si594  1  0.556301  0.371739  0.261074  1
  Si  Si595  1  0.566015  0.563936  0.259819  1
  Si  Si596  1  0.858499  0.571633  0.261823  1
  Si  Si597  1  0.455445  0.617377  0.349466  1
  Si  Si598  1  0.556504  0.623121  0.354823  1
  Si  Si599  1  0.450114  0.370639  0.319006  1
  Si  Si600  1  0.058687  0.563432  0.162871  1
  Si  Si601  1  0.240506  0.575551  0.167525  1
  Si  Si602  1  0.938804  0.628120  0.257665  1
  Si  Si603  1  0.935571  0.433073  0.256404  1
  Si  Si604  1  0.633384  0.429932  0.257851  1
  Si  Si605  1  0.049640  0.381019  0.165816  1
  Si  Si606  1  0.943046  0.377624  0.162494  1
  Si  Si607  1  0.047853  0.630708  0.200022  1
  Si  Si608  1  0.438492  0.438169  0.356337  1
  Si  Si609  1  0.257602  0.429098  0.350756  1
  Si  Si610  1  0.747795  0.469791  0.314615  1
  Si  Si611  1  0.565685  0.464679  0.314051  1
  Si  Si612  1  0.752311  0.530179  0.202530  1
  Si  Si613  1  0.934490  0.533642  0.203884  1
  Si  Si614  1  0.751947  0.876626  0.289316  1
  Si  Si615  1  0.754854  0.783498  0.312516  1
  Si  Si616  1  0.936698  0.781884  0.218655  1
  Si  Si617  1  0.561284  0.871521  0.259496  1
  Si  Si618  1  0.053388  0.816418  0.199853  1
  Si  Si619  1  0.240955  0.820040  0.355759  1
  Si  Si620  1  0.566844  0.819625  0.350644  1
  Si  Si621  1  0.870327  0.815295  0.196386  1
  Si  Si622  1  0.450319  0.870526  0.317545  1
  Si  Si623  1  0.937321  0.932484  0.258132  1
  Si  Si624  1  0.640874  0.927815  0.256032  1
  Si  Si625  1  0.043738  0.882114  0.167536  1
  Si  Si626  1  0.445285  0.685428  0.317847  1
  Si  Si627  1  0.257272  0.681724  0.161841  1
  Si  Si628  1  0.946157  0.874501  0.160948  1
  Si  Si629  1  0.933608  0.681133  0.166240  1
  Si  Si630  1  0.629029  0.685591  0.321023  1
  Si  Si631  1  0.438954  0.937841  0.354894  1
  Si  Si632  1  0.255000  0.927568  0.351649  1
  Si  Si633  1  0.563418  0.719065  0.298468  1
  Si  Si634  1  0.746615  0.970093  0.315159  1
  Si  Si635  1  0.564652  0.966592  0.313998  1
  Si  Si636  1  0.745959  0.716378  0.204410  1
  Si  Si637  1  0.254670  0.121837  0.225125  1
  Si  Si638  1  0.436271  0.033375  0.203545  1
  Si  Si639  1  0.251689  0.279720  0.313219  1
  Si  Si640  1  0.250223  0.031129  0.202880  1
  Si  Si641  1  0.065089  0.065119  0.260771  1
  Si  Si642  1  0.366549  0.070046  0.260086  1
  Si  Si643  1  0.951957  0.118658  0.350924  1
  Si  Si644  1  0.559243  0.314096  0.197066  1
  Si  Si645  1  0.742595  0.322216  0.354293  1
  Si  Si646  1  0.058059  0.122004  0.354467  1
  Si  Si647  1  0.065566  0.312823  0.351035  1
  Si  Si648  1  0.362110  0.323048  0.200142  1
  Si  Si649  1  0.553775  0.067723  0.163151  1
  Si  Si650  1  0.738613  0.074414  0.168125  1
  Si  Si651  1  0.445558  0.126749  0.256470  1
  Si  Si652  1  0.940328  0.187029  0.319737  1
  Si  Si653  1  0.756416  0.179907  0.162822  1
  Si  Si654  1  0.435637  0.188184  0.165530  1
  Si  Si655  1  0.137483  0.178057  0.317146  1
  Si  Si656  1  0.546151  0.132550  0.199789  1
  Si  Si657  1  0.067762  0.214688  0.295887  1
  Si  Si658  1  0.251887  0.217822  0.203171  1
  Si  Si659  1  0.432107  0.286002  0.221326  1
  Si  Si660  1  0.431267  0.535195  0.204771  1
  Si  Si661  1  0.246142  0.377352  0.291972  1
  Si  Si662  1  0.247699  0.625054  0.227342  1
  Si  Si663  1  0.057006  0.370303  0.260273  1
  Si  Si664  1  0.065836  0.562993  0.259355  1
  Si  Si665  1  0.360961  0.570048  0.261620  1
  Si  Si666  1  0.953043  0.618458  0.350067  1
  Si  Si667  1  0.056058  0.623457  0.354635  1
  Si  Si668  1  0.952413  0.368436  0.317991  1
  Si  Si669  1  0.557375  0.563275  0.163210  1
  Si  Si670  1  0.743142  0.572137  0.166223  1
  Si  Si671  1  0.439273  0.627685  0.258102  1
  Si  Si672  1  0.436630  0.432052  0.256537  1
  Si  Si673  1  0.133070  0.429138  0.257432  1
  Si  Si674  1  0.547022  0.382884  0.165990  1
  Si  Si675  1  0.443770  0.376882  0.161751  1
  Si  Si676  1  0.548219  0.628910  0.200118  1
  Si  Si677  1  0.942139  0.434827  0.355189  1
  Si  Si678  1  0.757465  0.429225  0.350948  1
  Si  Si679  1  0.247129  0.470436  0.314656  1
  Si  Si680  1  0.063327  0.466051  0.314038  1
  Si  Si681  1  0.252276  0.529958  0.202819  1
  Si  Si682  1  0.063144  0.869420  0.260257  1
  Si  Si683  1  0.553455  0.814278  0.199994  1
  Si  Si684  1  0.743195  0.819128  0.354930  1
  Si  Si685  1  0.067751  0.817013  0.349529  1
  Si  Si686  1  0.373486  0.816017  0.195921  1
  Si  Si687  1  0.944745  0.874232  0.319788  1
  Si  Si688  1  0.434948  0.935386  0.257626  1
  Si  Si689  1  0.144175  0.926408  0.255171  1
  Si  Si690  1  0.548284  0.880587  0.167237  1
  Si  Si691  1  0.946177  0.683787  0.317366  1
  Si  Si692  1  0.757308  0.679500  0.162203  1
  Si  Si693  1  0.444471  0.879427  0.162212  1
  Si  Si694  1  0.435064  0.682508  0.166247  1
  Si  Si695  1  0.131509  0.682787  0.319051  1
  Si  Si696  1  0.937408  0.940408  0.355798  1
  Si  Si697  1  0.752021  0.929264  0.352343  1
  Si  Si698  1  0.060798  0.720814  0.298155  1
  Si  Si699  1  0.248238  0.969226  0.314790  1
  Si  Si700  1  0.065902  0.966305  0.313526  1
  Si  Si701  1  0.249306  0.716400  0.203265  1
  Si  Si702  1  0.435177  0.780781  0.219628  1
  Si  Si703  1  0.253271  0.782509  0.313376  1
  Si  Si704  1  0.250210  0.876175  0.290355  1
  Si  Si705  1  0.751156  0.125088  0.479839  1
  Si  Si706  1  0.751706  0.279028  0.567604  1
  Si  Si707  1  0.566471  0.065024  0.514604  1
  Si  Si708  1  0.871168  0.064936  0.512802  1
  Si  Si709  1  0.451377  0.118934  0.605359  1
  Si  Si710  1  0.061988  0.312199  0.450874  1
  Si  Si711  1  0.243459  0.321637  0.607961  1
  Si  Si712  1  0.558607  0.123369  0.608085  1
  Si  Si713  1  0.565381  0.313277  0.604534  1
  Si  Si714  1  0.862612  0.322150  0.453990  1
  Si  Si715  1  0.056621  0.065259  0.416654  1
  Si  Si716  1  0.238872  0.072078  0.421064  1
  Si  Si717  1  0.944075  0.125782  0.510887  1
  Si  Si718  1  0.440410  0.186888  0.573936  1
  Si  Si719  1  0.258020  0.176925  0.417064  1
  Si  Si720  1  0.935953  0.186590  0.419952  1
  Si  Si721  1  0.641724  0.176561  0.569621  1
  Si  Si722  1  0.042942  0.133534  0.454646  1
  Si  Si723  1  0.565642  0.216643  0.550446  1
  Si  Si724  1  0.750200  0.219848  0.457168  1
  Si  Si725  1  0.933130  0.285937  0.474982  1
  Si  Si726  1  0.754141  0.028649  0.456722  1
  Si  Si727  1  0.933913  0.034554  0.457480  1
  Si  Si728  1  0.749464  0.374885  0.545601  1
  Si  Si729  1  0.748588  0.623396  0.481872  1
  Si  Si730  1  0.556301  0.371739  0.515160  1
  Si  Si731  1  0.566015  0.563936  0.513905  1
  Si  Si732  1  0.858499  0.571633  0.515909  1
  Si  Si733  1  0.455445  0.617377  0.603552  1
  Si  Si734  1  0.556504  0.623121  0.608909  1
  Si  Si735  1  0.450114  0.370639  0.573092  1
  Si  Si736  1  0.058687  0.563432  0.416957  1
  Si  Si737  1  0.240506  0.575551  0.421611  1
  Si  Si738  1  0.938804  0.628120  0.511751  1
  Si  Si739  1  0.935571  0.433073  0.510490  1
  Si  Si740  1  0.633384  0.429932  0.511937  1
  Si  Si741  1  0.049640  0.381019  0.419902  1
  Si  Si742  1  0.943046  0.377624  0.416580  1
  Si  Si743  1  0.047853  0.630708  0.454108  1
  Si  Si744  1  0.438492  0.438169  0.610423  1
  Si  Si745  1  0.257602  0.429098  0.604842  1
  Si  Si746  1  0.747795  0.469791  0.568701  1
  Si  Si747  1  0.565685  0.464679  0.568137  1
  Si  Si748  1  0.752311  0.530179  0.456616  1
  Si  Si749  1  0.934490  0.533642  0.457970  1
  Si  Si750  1  0.751947  0.876626  0.543402  1
  Si  Si751  1  0.754854  0.783498  0.566602  1
  Si  Si752  1  0.936698  0.781884  0.472741  1
  Si  Si753  1  0.561284  0.871521  0.513581  1
  Si  Si754  1  0.053388  0.816418  0.453939  1
  Si  Si755  1  0.240955  0.820040  0.609845  1
  Si  Si756  1  0.566844  0.819625  0.604730  1
  Si  Si757  1  0.870327  0.815295  0.450472  1
  Si  Si758  1  0.450319  0.870526  0.571630  1
  Si  Si759  1  0.937321  0.932484  0.512218  1
  Si  Si760  1  0.640874  0.927815  0.510118  1
  Si  Si761  1  0.043738  0.882114  0.421622  1
  Si  Si762  1  0.445285  0.685428  0.571933  1
  Si  Si763  1  0.257272  0.681724  0.415927  1
  Si  Si764  1  0.946157  0.874501  0.415034  1
  Si  Si765  1  0.933608  0.681133  0.420326  1
  Si  Si766  1  0.629029  0.685591  0.575109  1
  Si  Si767  1  0.438954  0.937841  0.608980  1
  Si  Si768  1  0.255000  0.927568  0.605735  1
  Si  Si769  1  0.563418  0.719065  0.552554  1
  Si  Si770  1  0.746615  0.970093  0.569245  1
  Si  Si771  1  0.564652  0.966592  0.568084  1
  Si  Si772  1  0.745959  0.716378  0.458496  1
  Si  Si773  1  0.254670  0.121837  0.479211  1
  Si  Si774  1  0.436271  0.033375  0.457630  1
  Si  Si775  1  0.251689  0.279720  0.567305  1
  Si  Si776  1  0.250223  0.031129  0.456966  1
  Si  Si777  1  0.065089  0.065119  0.514857  1
  Si  Si778  1  0.366549  0.070046  0.514171  1
  Si  Si779  1  0.951957  0.118658  0.605010  1
  Si  Si780  1  0.559243  0.314096  0.451152  1
  Si  Si781  1  0.742595  0.322216  0.608379  1
  Si  Si782  1  0.058059  0.122004  0.608553  1
  Si  Si783  1  0.065566  0.312823  0.605121  1
  Si  Si784  1  0.362110  0.323048  0.454228  1
  Si  Si785  1  0.553775  0.067723  0.417237  1
  Si  Si786  1  0.738613  0.074414  0.422211  1
  Si  Si787  1  0.445558  0.126749  0.510556  1
  Si  Si788  1  0.940328  0.187029  0.573823  1
  Si  Si789  1  0.756416  0.179907  0.416908  1
  Si  Si790  1  0.435637  0.188184  0.419616  1
  Si  Si791  1  0.137483  0.178057  0.571232  1
  Si  Si792  1  0.546151  0.132550  0.453875  1
  Si  Si793  1  0.067762  0.214688  0.549973  1
  Si  Si794  1  0.251887  0.217822  0.457257  1
  Si  Si795  1  0.432107  0.286002  0.475412  1
  Si  Si796  1  0.431267  0.535195  0.458857  1
  Si  Si797  1  0.246142  0.377352  0.546058  1
  Si  Si798  1  0.247699  0.625054  0.481428  1
  Si  Si799  1  0.057006  0.370303  0.514359  1
  Si  Si800  1  0.065836  0.562993  0.513441  1
  Si  Si801  1  0.360961  0.570048  0.515706  1
  Si  Si802  1  0.953043  0.618458  0.604153  1
  Si  Si803  1  0.056058  0.623457  0.608721  1
  Si  Si804  1  0.952413  0.368436  0.572077  1
  Si  Si805  1  0.557375  0.563275  0.417296  1
  Si  Si806  1  0.743142  0.572137  0.420309  1
  Si  Si807  1  0.439273  0.627685  0.512188  1
  Si  Si808  1  0.436630  0.432052  0.510623  1
  Si  Si809  1  0.133070  0.429138  0.511518  1
  Si  Si810  1  0.547022  0.382884  0.420076  1
  Si  Si811  1  0.443770  0.376882  0.415837  1
  Si  Si812  1  0.548219  0.628910  0.454204  1
  Si  Si813  1  0.942139  0.434827  0.609275  1
  Si  Si814  1  0.757465  0.429225  0.605034  1
  Si  Si815  1  0.247129  0.470436  0.568742  1
  Si  Si816  1  0.063327  0.466051  0.568124  1
  Si  Si817  1  0.252276  0.529958  0.456905  1
  Si  Si818  1  0.063144  0.869420  0.514343  1
  Si  Si819  1  0.553455  0.814278  0.454080  1
  Si  Si820  1  0.743195  0.819128  0.609016  1
  Si  Si821  1  0.067751  0.817013  0.603615  1
  Si  Si822  1  0.373486  0.816017  0.450007  1
  Si  Si823  1  0.944745  0.874232  0.573874  1
  Si  Si824  1  0.434948  0.935386  0.511712  1
  Si  Si825  1  0.144175  0.926408  0.509257  1
  Si  Si826  1  0.548284  0.880587  0.421323  1
  Si  Si827  1  0.946177  0.683787  0.571452  1
  Si  Si828  1  0.757308  0.679500  0.416289  1
  Si  Si829  1  0.444471  0.879427  0.416298  1
  Si  Si830  1  0.435064  0.682508  0.420333  1
  Si  Si831  1  0.131509  0.682787  0.573137  1
  Si  Si832  1  0.937408  0.940408  0.609884  1
  Si  Si833  1  0.752021  0.929264  0.606429  1
  Si  Si834  1  0.060798  0.720814  0.552241  1
  Si  Si835  1  0.248238  0.969226  0.568876  1
  Si  Si836  1  0.065902  0.966305  0.567612  1
  Si  Si837  1  0.249306  0.716400  0.457351  1
  Si  Si838  1  0.435177  0.780781  0.473714  1
  Si  Si839  1  0.253271  0.782509  0.567462  1
  Si  Si840  1  0.250210  0.876175  0.544441  1
  H  H841  1  0.352792  0.145204  0.116850  1
  H  H842  1  0.512461  0.332627  0.116113  1
  H  H843  1  0.163343  0.497130  0.117652  1
  H  H844  1  0.352804  0.650192  0.115846  1
  H  H845  1  0.013426  0.333933  0.116623  1
  H  H846  1  0.163405  0.000000  0.117348  1
  H  H847  1  0.852937  0.144869  0.116304  1
  H  H848  1  0.658918  0.000000  0.118224  1
  H  H849  1  0.662593  0.497239  0.117938  1
  H  H850  1  0.849814  0.653497  0.116985  1
  H  H851  1  0.517490  0.843074  0.115816  1
  H  H852  1  0.017872  0.836695  0.114698  1
  H  H853  1  0.333008  0.003058  0.122379  1
  H  H854  1  0.490419  0.166800  0.121625  1
  H  H855  1  0.148257  0.354212  0.122147  1
  H  H856  1  0.333592  0.503932  0.123884  1
  H  H857  1  0.485988  0.657838  0.122934  1
  H  H858  1  0.149428  0.845827  0.123257  1
  H  H859  1  0.989097  0.165544  0.122203  1
  H  H860  1  0.834289  0.005409  0.123522  1
  H  H861  1  0.984317  0.659077  0.122952  1
  H  H862  1  0.647563  0.355322  0.122779  1
  H  H863  1  0.835811  0.500202  0.122695  1
  H  H864  1  0.652685  0.842832  0.121978  1
  H  H865  1  0.352792  0.145204  0.648872  1
  H  H866  1  0.512461  0.332627  0.648135  1
  H  H867  1  0.163343  0.497130  0.649674  1
  H  H868  1  0.352804  0.650192  0.647868  1
  H  H869  1  0.013426  0.333933  0.648645  1
  H  H870  1  0.163405  0.000000  0.649370  1
  H  H871  1  0.852937  0.144869  0.648326  1
  H  H872  1  0.658918  0.000000  0.650246  1
  H  H873  1  0.662593  0.497239  0.649960  1
  H  H874  1  0.849814  0.653497  0.649006  1
  H  H875  1  0.517490  0.843074  0.647838  1
  H  H876  1  0.017872  0.836695  0.646720  1
  H  H877  1  0.333008  0.003058  0.654401  1
  H  H878  1  0.490419  0.166800  0.653647  1
  H  H879  1  0.148257  0.354212  0.654169  1
  H  H880  1  0.333592  0.503932  0.655905  1
  H  H881  1  0.485988  0.657838  0.654955  1
  H  H882  1  0.149428  0.845827  0.655278  1
  H  H883  1  0.989097  0.165544  0.654225  1
  H  H884  1  0.834289  0.005409  0.655544  1
  H  H885  1  0.984317  0.659077  0.654973  1
  H  H886  1  0.647563  0.355322  0.654801  1
  H  H887  1  0.835811  0.500202  0.654717  1
  H  H888  1  0.652685  0.842832  0.653999  1
