# generated using pymatgen
data_Si35H2O71
_symmetry_space_group_name_H-M   'P 1'
_cell_length_a   25.36503145
_cell_length_b   13.87769178
_cell_length_c   68.74931248
_cell_angle_alpha   90.00000000
_cell_angle_beta   90.00000000
_cell_angle_gamma   90.00000000
_symmetry_Int_Tables_number   1
_chemical_formula_structural   Si35H2O71
_chemical_formula_sum   'Si280 H16 O568'
_cell_volume   24200.3140692
_cell_formula_units_Z   8
loop_
 _symmetry_equiv_pos_site_id
 _symmetry_equiv_pos_as_xyz
  1  'x, y, z'
loop_
 _atom_site_type_symbol
 _atom_site_label
 _atom_site_symmetry_multiplicity
 _atom_site_fract_x
 _atom_site_fract_y
 _atom_site_fract_z
 _atom_site_occupancy
  O  O1  1  0.084712  0.336884  0.085917  1
  O  O2  1  0.085106  0.662193  0.085939  1
  O  O3  1  0.071622  0.499500  0.104311  1
  O  O4  1  0.149893  0.759406  0.220426  1
  O  O5  1  0.149789  0.240032  0.220375  1
  O  O6  1  0.149844  0.740209  0.149735  1
  O  O7  1  0.149918  0.259800  0.149702  1
  O  O8  1  0.319560  0.250091  0.185077  1
  O  O9  1  0.180611  0.749988  0.185083  1
  O  O10  1  0.319603  0.750136  0.185085  1
  O  O11  1  0.180584  0.250118  0.185046  1
  O  O12  1  0.250004  0.250240  0.211008  1
  O  O13  1  0.250140  0.750411  0.211032  1
  O  O14  1  0.250059  0.750106  0.159137  1
  O  O15  1  0.250144  0.250307  0.159109  1
  O  O16  1  0.308978  0.100245  0.206042  1
  O  O17  1  0.191359  0.600245  0.206098  1
  O  O18  1  0.309426  0.900013  0.206077  1
  O  O19  1  0.190624  0.399879  0.206103  1
  O  O20  1  0.190039  0.899876  0.164041  1
  O  O21  1  0.310279  0.399940  0.164038  1
  O  O22  1  0.190387  0.100295  0.164048  1
  O  O23  1  0.309579  0.600411  0.164066  1
  O  O24  1  0.094773  0.908060  0.214697  1
  O  O25  1  0.094765  0.091049  0.214827  1
  O  O26  1  0.094507  0.592057  0.155497  1
  O  O27  1  0.095510  0.409232  0.155250  1
  O  O28  1  0.085529  0.838237  0.247435  1
  O  O29  1  0.084909  0.162879  0.247381  1
  O  O30  1  0.085472  0.661785  0.122719  1
  O  O31  1  0.084765  0.336986  0.122775  1
  O  O32  1  0.050101  0.749191  0.217506  1
  O  O33  1  0.050301  0.250176  0.216968  1
  O  O34  1  0.049988  0.750979  0.152653  1
  O  O35  1  0.050443  0.250458  0.153307  1
  O  O36  1  0.151702  0.000000  0.190836  1
  O  O37  1  0.151267  0.500678  0.179577  1
  O  O38  1  0.249737  0.498791  0.184703  1
  O  O39  1  0.250533  -0.000000  0.184622  1
  O  O40  1  0.050662  -0.000000  0.187896  1
  O  O41  1  0.050646  0.498965  0.182191  1
  O  O42  1  0.000000  0.624497  0.104396  1
  O  O43  1  -0.000000  0.099178  0.164141  1
  O  O44  1  0.001875  0.750298  0.185095  1
  O  O45  1  0.000000  0.599139  0.205955  1
  O  O46  1  0.585590  0.838170  0.086042  1
  O  O47  1  0.415358  0.836905  0.085819  1
  O  O48  1  0.584784  0.162872  0.085875  1
  O  O49  1  0.414791  0.162155  0.085950  1
  O  O50  1  0.428495  0.000000  0.104214  1
  O  O51  1  0.500119  0.875421  0.104310  1
  O  O52  1  0.350213  0.259428  0.220436  1
  O  O53  1  0.649723  0.259405  0.220414  1
  O  O54  1  0.350345  0.740456  0.220441  1
  O  O55  1  0.649831  0.740742  0.220447  1
  O  O56  1  0.649816  0.240070  0.149690  1
  O  O57  1  0.350329  0.239832  0.149763  1
  O  O58  1  0.649710  0.760089  0.149763  1
  O  O59  1  0.350224  0.759978  0.149724  1
  O  O60  1  0.594909  0.408373  0.214801  1
  O  O61  1  0.404938  0.408602  0.214836  1
  O  O62  1  0.595607  0.591031  0.214891  1
  O  O63  1  0.405481  0.591684  0.214830  1
  O  O64  1  0.405863  0.091723  0.155511  1
  O  O65  1  0.595080  0.091056  0.155286  1
  O  O66  1  0.405373  0.908590  0.155345  1
  O  O67  1  0.594469  0.908382  0.155515  1
  O  O68  1  0.584711  0.336829  0.247388  1
  O  O69  1  0.414646  0.338055  0.247470  1
  O  O70  1  0.584837  0.662826  0.247364  1
  O  O71  1  0.414802  0.662449  0.247520  1
  O  O72  1  0.414697  0.161621  0.122746  1
  O  O73  1  0.584756  0.163044  0.122740  1
  O  O74  1  0.414731  0.837737  0.122650  1
  O  O75  1  0.584779  0.837686  0.122858  1
  O  O76  1  0.550230  0.249726  0.216929  1
  O  O77  1  0.449945  0.249787  0.217432  1
  O  O78  1  0.550356  0.749373  0.216838  1
  O  O79  1  0.450084  0.750740  0.217474  1
  O  O80  1  0.450102  0.251141  0.152668  1
  O  O81  1  0.550351  0.249989  0.153237  1
  O  O82  1  0.449913  0.749197  0.152669  1
  O  O83  1  0.550175  0.749372  0.153196  1
  O  O84  1  0.348495  0.500600  0.190832  1
  O  O85  1  0.651870  0.499509  0.190799  1
  O  O86  1  0.650941  -0.000000  0.179622  1
  O  O87  1  0.349003  -0.000000  0.179511  1
  O  O88  1  0.550767  0.500705  0.188029  1
  O  O89  1  0.449509  0.499492  0.188034  1
  O  O90  1  0.449500  0.000000  0.182337  1
  O  O91  1  0.550335  0.000000  0.182244  1
  O  O92  1  0.571558  0.000000  0.104403  1
  O  O93  1  0.571574  0.499672  0.265685  1
  O  O94  1  0.500373  0.400834  0.164301  1
  O  O95  1  0.499796  0.598941  0.164254  1
  O  O96  1  0.499715  0.099113  0.206107  1
  O  O97  1  0.500429  0.900639  0.206060  1
  O  O98  1  0.498391  0.249405  0.185056  1
  O  O99  1  0.498239  0.750251  0.185038  1
  O  O100  1  0.499905  0.124542  0.104333  1
  O  O101  1  0.914619  0.338258  0.085989  1
  O  O102  1  0.915344  0.663143  0.085943  1
  O  O103  1  0.850338  0.759771  0.220364  1
  O  O104  1  0.850195  0.240557  0.220382  1
  O  O105  1  0.850187  0.740047  0.149722  1
  O  O106  1  0.850286  0.259702  0.149712  1
  O  O107  1  0.819453  0.749894  0.185048  1
  O  O108  1  0.680519  0.249935  0.185038  1
  O  O109  1  0.819445  0.250047  0.185043  1
  O  O110  1  0.680557  0.749984  0.185085  1
  O  O111  1  0.750077  0.749933  0.211031  1
  O  O112  1  0.749957  0.249916  0.211003  1
  O  O113  1  0.750028  0.249799  0.159072  1
  O  O114  1  0.749943  0.749950  0.159098  1
  O  O115  1  0.809176  0.600138  0.206081  1
  O  O116  1  0.690905  0.100125  0.206069  1
  O  O117  1  0.808885  0.399847  0.206071  1
  O  O118  1  0.691108  0.899879  0.206083  1
  O  O119  1  0.690268  0.399719  0.163979  1
  O  O120  1  0.809876  0.899727  0.164028  1
  O  O121  1  0.689973  0.600209  0.164010  1
  O  O122  1  0.809983  0.100118  0.164018  1
  O  O123  1  0.905296  0.908838  0.214775  1
  O  O124  1  0.905347  0.091885  0.214681  1
  O  O125  1  0.904821  0.590825  0.155269  1
  O  O126  1  0.905507  0.407981  0.155497  1
  O  O127  1  0.915346  0.836973  0.247317  1
  O  O128  1  0.914519  0.161911  0.247404  1
  O  O129  1  0.915337  0.663191  0.122795  1
  O  O130  1  0.914763  0.338131  0.122748  1
  O  O131  1  0.949807  0.749722  0.216887  1
  O  O132  1  0.949994  0.250837  0.217470  1
  O  O133  1  0.949676  0.749773  0.153329  1
  O  O134  1  0.950134  0.249109  0.152718  1
  O  O135  1  0.848317  -0.000000  0.190834  1
  O  O136  1  0.849173  0.499675  0.179643  1
  O  O137  1  0.749481  0.000000  0.184559  1
  O  O138  1  0.750648  0.500404  0.184517  1
  O  O139  1  0.949360  0.000000  0.187850  1
  O  O140  1  0.949799  0.500801  0.182142  1
  O  O141  1  0.000000  0.124592  0.265729  1
  O  O142  1  0.928504  0.000000  0.265733  1
  O  O143  1  0.928453  0.500605  0.104378  1
  O  O144  1  -0.000000  0.375567  0.104346  1
  O  O145  1  0.998446  0.249613  0.185121  1
  O  O146  1  -0.000000  0.400812  0.205972  1
  O  O147  1  0.000000  0.900912  0.164143  1
  O  O148  1  0.149841  0.259891  0.381912  1
  O  O149  1  0.149735  0.740196  0.381897  1
  O  O150  1  0.149737  0.239782  0.311217  1
  O  O151  1  0.149825  0.759352  0.311198  1
  O  O152  1  0.319412  0.750103  0.346550  1
  O  O153  1  0.180506  0.250034  0.346561  1
  O  O154  1  0.319452  0.249987  0.346564  1
  O  O155  1  0.180534  0.749916  0.346552  1
  O  O156  1  0.249959  0.750130  0.372516  1
  O  O157  1  0.250040  0.249990  0.372529  1
  O  O158  1  0.249952  0.250450  0.320599  1
  O  O159  1  0.250033  0.750166  0.320590  1
  O  O160  1  0.309260  0.600231  0.367537  1
  O  O161  1  0.190124  0.100239  0.367577  1
  O  O162  1  0.309947  0.399834  0.367616  1
  O  O163  1  0.189964  0.899852  0.367584  1
  O  O164  1  0.190322  0.399765  0.325480  1
  O  O165  1  0.309146  0.899986  0.325531  1
  O  O166  1  0.191138  0.600142  0.325526  1
  O  O167  1  0.308770  0.100296  0.325530  1
  O  O168  1  0.095160  0.408946  0.376328  1
  O  O169  1  0.094686  0.591637  0.376210  1
  O  O170  1  0.094766  0.090834  0.316741  1
  O  O171  1  0.094669  0.907882  0.316929  1
  O  O172  1  0.084712  0.336884  0.408851  1
  O  O173  1  0.085106  0.662193  0.408873  1
  O  O174  1  0.084593  0.163152  0.284242  1
  O  O175  1  0.085435  0.838047  0.284186  1
  O  O176  1  0.050380  0.250067  0.378335  1
  O  O177  1  0.050008  0.750454  0.378719  1
  O  O178  1  0.050328  0.250104  0.314769  1
  O  O179  1  0.050074  0.748927  0.314140  1
  O  O180  1  0.150776  0.500405  0.351968  1
  O  O181  1  0.151708  0.000000  0.340754  1
  O  O182  1  0.250522  0.000000  0.347050  1
  O  O183  1  0.249345  0.498429  0.346921  1
  O  O184  1  0.049940  0.499540  0.349582  1
  O  O185  1  0.050671  -0.000000  0.343720  1
  O  O186  1  0.071622  0.499500  0.427245  1
  O  O187  1  0.000000  0.599140  0.325691  1
  O  O188  1  -0.000000  0.099085  0.367466  1
  O  O189  1  0.071567  -0.000000  0.265838  1
  O  O190  1  0.001098  0.751145  0.346384  1
  O  O191  1  0.000000  0.875374  0.265799  1
  O  O192  1  0.149893  0.759406  0.543360  1
  O  O193  1  0.149789  0.240032  0.543309  1
  O  O194  1  0.149844  0.740209  0.472668  1
  O  O195  1  0.149918  0.259800  0.472636  1
  O  O196  1  0.319560  0.250091  0.508011  1
  O  O197  1  0.180611  0.749988  0.508017  1
  O  O198  1  0.319603  0.750136  0.508018  1
  O  O199  1  0.180584  0.250118  0.507979  1
  O  O200  1  0.250004  0.250240  0.533942  1
  O  O201  1  0.250140  0.750411  0.533965  1
  O  O202  1  0.250059  0.750106  0.482070  1
  O  O203  1  0.250144  0.250307  0.482043  1
  O  O204  1  0.308978  0.100245  0.528976  1
  O  O205  1  0.191359  0.600245  0.529032  1
  O  O206  1  0.309426  0.900013  0.529010  1
  O  O207  1  0.190624  0.399879  0.529036  1
  O  O208  1  0.190039  0.899876  0.486975  1
  O  O209  1  0.310279  0.399940  0.486972  1
  O  O210  1  0.190387  0.100295  0.486982  1
  O  O211  1  0.309579  0.600411  0.487000  1
  O  O212  1  0.094773  0.908060  0.537631  1
  O  O213  1  0.094765  0.091049  0.537760  1
  O  O214  1  0.094507  0.592057  0.478431  1
  O  O215  1  0.095510  0.409232  0.478183  1
  O  O216  1  0.085529  0.838237  0.570369  1
  O  O217  1  0.084909  0.162879  0.570315  1
  O  O218  1  0.085472  0.661785  0.445653  1
  O  O219  1  0.084765  0.336986  0.445708  1
  O  O220  1  0.050101  0.749191  0.540440  1
  O  O221  1  0.050301  0.250176  0.539902  1
  O  O222  1  0.049988  0.750979  0.475587  1
  O  O223  1  0.050443  0.250458  0.476240  1
  O  O224  1  0.151702  0.000000  0.513770  1
  O  O225  1  0.151267  0.500678  0.502511  1
  O  O226  1  0.249737  0.498791  0.507637  1
  O  O227  1  0.250533  -0.000000  0.507555  1
  O  O228  1  0.050662  -0.000000  0.510830  1
  O  O229  1  0.050646  0.498965  0.505124  1
  O  O230  1  0.000000  0.624497  0.427329  1
  O  O231  1  0.000000  0.099178  0.487075  1
  O  O232  1  0.001875  0.750298  0.508029  1
  O  O233  1  0.000000  0.599139  0.528889  1
  O  O234  1  0.350260  0.759512  0.381865  1
  O  O235  1  0.649861  0.759292  0.381924  1
  O  O236  1  0.350293  0.240139  0.381891  1
  O  O237  1  0.649826  0.240393  0.381868  1
  O  O238  1  0.649857  0.740442  0.311208  1
  O  O239  1  0.350323  0.740419  0.311244  1
  O  O240  1  0.649838  0.259594  0.311198  1
  O  O241  1  0.350229  0.259386  0.311224  1
  O  O242  1  0.594804  0.907951  0.376186  1
  O  O243  1  0.404790  0.908855  0.376251  1
  O  O244  1  0.595353  0.090884  0.376321  1
  O  O245  1  0.405508  0.091724  0.376159  1
  O  O246  1  0.404911  0.590913  0.316785  1
  O  O247  1  0.594761  0.591823  0.316927  1
  O  O248  1  0.405428  0.407835  0.317003  1
  O  O249  1  0.595248  0.408920  0.316788  1
  O  O250  1  0.585590  0.838170  0.408976  1
  O  O251  1  0.415358  0.836905  0.408753  1
  O  O252  1  0.584784  0.162872  0.408809  1
  O  O253  1  0.414791  0.162155  0.408884  1
  O  O254  1  0.415414  0.663144  0.284334  1
  O  O255  1  0.585589  0.661645  0.284156  1
  O  O256  1  0.414599  0.338045  0.284226  1
  O  O257  1  0.584954  0.337393  0.284236  1
  O  O258  1  0.550065  0.749211  0.379057  1
  O  O259  1  0.449764  0.750070  0.378271  1
  O  O260  1  0.550399  0.249721  0.378306  1
  O  O261  1  0.450109  0.250679  0.378861  1
  O  O262  1  0.449785  0.749841  0.314855  1
  O  O263  1  0.550072  0.750621  0.314079  1
  O  O264  1  0.450064  0.248924  0.314122  1
  O  O265  1  0.550371  0.250086  0.314641  1
  O  O266  1  0.349051  0.000000  0.351978  1
  O  O267  1  0.651048  -0.000000  0.351985  1
  O  O268  1  0.650612  0.500174  0.341200  1
  O  O269  1  0.348080  0.500008  0.340783  1
  O  O270  1  0.550481  0.000000  0.349472  1
  O  O271  1  0.449653  -0.000000  0.349399  1
  O  O272  1  0.448912  0.500631  0.343845  1
  O  O273  1  0.549915  0.499416  0.343526  1
  O  O274  1  0.500152  0.624569  0.265857  1
  O  O275  1  0.499892  0.375413  0.265863  1
  O  O276  1  0.428494  0.500362  0.265922  1
  O  O277  1  0.500312  0.900778  0.325627  1
  O  O278  1  0.500123  0.099141  0.325629  1
  O  O279  1  0.500227  0.599180  0.367468  1
  O  O280  1  0.499996  0.400832  0.367460  1
  O  O281  1  0.502207  0.750057  0.346568  1
  O  O282  1  0.498462  0.250330  0.346474  1
  O  O283  1  0.428495  -0.000000  0.427148  1
  O  O284  1  0.500119  0.875421  0.427244  1
  O  O285  1  0.350213  0.259428  0.543370  1
  O  O286  1  0.649723  0.259405  0.543348  1
  O  O287  1  0.350345  0.740456  0.543375  1
  O  O288  1  0.649831  0.740742  0.543380  1
  O  O289  1  0.649816  0.240070  0.472624  1
  O  O290  1  0.350329  0.239832  0.472696  1
  O  O291  1  0.649710  0.760089  0.472696  1
  O  O292  1  0.350224  0.759978  0.472658  1
  O  O293  1  0.594909  0.408373  0.537734  1
  O  O294  1  0.404938  0.408602  0.537770  1
  O  O295  1  0.595607  0.591031  0.537824  1
  O  O296  1  0.405481  0.591684  0.537764  1
  O  O297  1  0.405863  0.091723  0.478444  1
  O  O298  1  0.595080  0.091056  0.478220  1
  O  O299  1  0.405373  0.908590  0.478279  1
  O  O300  1  0.594469  0.908382  0.478449  1
  O  O301  1  0.584711  0.336829  0.570322  1
  O  O302  1  0.414646  0.338055  0.570403  1
  O  O303  1  0.584837  0.662826  0.570298  1
  O  O304  1  0.414802  0.662449  0.570454  1
  O  O305  1  0.414697  0.161621  0.445680  1
  O  O306  1  0.584756  0.163044  0.445674  1
  O  O307  1  0.414731  0.837737  0.445583  1
  O  O308  1  0.584779  0.837686  0.445791  1
  O  O309  1  0.550230  0.249726  0.539862  1
  O  O310  1  0.449945  0.249787  0.540366  1
  O  O311  1  0.550356  0.749373  0.539772  1
  O  O312  1  0.450084  0.750740  0.540408  1
  O  O313  1  0.450102  0.251141  0.475601  1
  O  O314  1  0.550351  0.249989  0.476170  1
  O  O315  1  0.449913  0.749197  0.475603  1
  O  O316  1  0.550175  0.749372  0.476130  1
  O  O317  1  0.348495  0.500600  0.513765  1
  O  O318  1  0.651870  0.499509  0.513732  1
  O  O319  1  0.650941  0.000000  0.502556  1
  O  O320  1  0.349003  0.000000  0.502445  1
  O  O321  1  0.550767  0.500705  0.510963  1
  O  O322  1  0.449509  0.499492  0.510967  1
  O  O323  1  0.449500  -0.000000  0.505270  1
  O  O324  1  0.550335  0.000000  0.505177  1
  O  O325  1  0.571558  0.000000  0.427336  1
  O  O326  1  0.571574  0.499672  0.588619  1
  O  O327  1  0.500373  0.400834  0.487235  1
  O  O328  1  0.499796  0.598941  0.487188  1
  O  O329  1  0.499715  0.099113  0.529041  1
  O  O330  1  0.500429  0.900639  0.528994  1
  O  O331  1  0.498391  0.249405  0.507989  1
  O  O332  1  0.498239  0.750251  0.507971  1
  O  O333  1  0.499905  0.124542  0.427267  1
  O  O334  1  0.850253  0.259751  0.381896  1
  O  O335  1  0.850264  0.740021  0.381904  1
  O  O336  1  0.850273  0.239979  0.311189  1
  O  O337  1  0.850241  0.760224  0.311199  1
  O  O338  1  0.819599  0.250001  0.346531  1
  O  O339  1  0.680599  0.749954  0.346561  1
  O  O340  1  0.819608  0.749963  0.346555  1
  O  O341  1  0.680623  0.249961  0.346531  1
  O  O342  1  0.750077  0.249706  0.372484  1
  O  O343  1  0.750077  0.750238  0.372506  1
  O  O344  1  0.750082  0.749485  0.320614  1
  O  O345  1  0.750079  0.250037  0.320579  1
  O  O346  1  0.810077  0.100089  0.367536  1
  O  O347  1  0.691144  0.600122  0.367575  1
  O  O348  1  0.810085  0.899826  0.367548  1
  O  O349  1  0.691102  0.399752  0.367549  1
  O  O350  1  0.691148  0.899690  0.325519  1
  O  O351  1  0.809977  0.399809  0.325489  1
  O  O352  1  0.691016  0.100119  0.325526  1
  O  O353  1  0.810034  0.600234  0.325517  1
  O  O354  1  0.905625  0.407891  0.376145  1
  O  O355  1  0.904951  0.590798  0.376395  1
  O  O356  1  0.905651  0.091704  0.316881  1
  O  O357  1  0.905515  0.908733  0.316777  1
  O  O358  1  0.914619  0.338258  0.408922  1
  O  O359  1  0.915344  0.663143  0.408877  1
  O  O360  1  0.914688  0.161772  0.284157  1
  O  O361  1  0.915073  0.837248  0.284159  1
  O  O362  1  0.950099  0.248909  0.379005  1
  O  O363  1  0.949737  0.749752  0.378353  1
  O  O364  1  0.950071  0.250869  0.314119  1
  O  O365  1  0.949781  0.749396  0.314462  1
  O  O366  1  0.847893  0.499697  0.352414  1
  O  O367  1  0.848343  0.000000  0.340685  1
  O  O368  1  0.749192  0.500006  0.345936  1
  O  O369  1  0.749522  0.000000  0.347013  1
  O  O370  1  0.948813  0.500713  0.349294  1
  O  O371  1  0.949359  0.000000  0.343759  1
  O  O372  1  0.998195  0.249917  0.346555  1
  O  O373  1  -0.000000  0.400910  0.325686  1
  O  O374  1  -0.000000  0.900863  0.367486  1
  O  O375  1  0.850338  0.759771  0.543298  1
  O  O376  1  0.850195  0.240557  0.543315  1
  O  O377  1  0.850187  0.740047  0.472655  1
  O  O378  1  0.850286  0.259702  0.472646  1
  O  O379  1  0.819453  0.749894  0.507982  1
  O  O380  1  0.680519  0.249935  0.507972  1
  O  O381  1  0.819445  0.250047  0.507977  1
  O  O382  1  0.680557  0.749984  0.508019  1
  O  O383  1  0.750077  0.749933  0.533965  1
  O  O384  1  0.749957  0.249916  0.533936  1
  O  O385  1  0.750028  0.249799  0.482005  1
  O  O386  1  0.749943  0.749950  0.482031  1
  O  O387  1  0.809176  0.600138  0.529014  1
  O  O388  1  0.690905  0.100125  0.529003  1
  O  O389  1  0.808885  0.399847  0.529005  1
  O  O390  1  0.691108  0.899879  0.529016  1
  O  O391  1  0.690268  0.399719  0.486913  1
  O  O392  1  0.809876  0.899727  0.486962  1
  O  O393  1  0.689973  0.600209  0.486944  1
  O  O394  1  0.809983  0.100118  0.486952  1
  O  O395  1  0.905296  0.908838  0.537709  1
  O  O396  1  0.905347  0.091885  0.537614  1
  O  O397  1  0.904821  0.590825  0.478203  1
  O  O398  1  0.905507  0.407981  0.478430  1
  O  O399  1  0.915346  0.836973  0.570250  1
  O  O400  1  0.914519  0.161911  0.570337  1
  O  O401  1  0.915337  0.663191  0.445729  1
  O  O402  1  0.914763  0.338131  0.445681  1
  O  O403  1  0.949807  0.749722  0.539821  1
  O  O404  1  0.949994  0.250837  0.540404  1
  O  O405  1  0.949676  0.749773  0.476263  1
  O  O406  1  0.950134  0.249109  0.475652  1
  O  O407  1  0.848317  0.000000  0.513768  1
  O  O408  1  0.849173  0.499675  0.502577  1
  O  O409  1  0.749481  0.000000  0.507493  1
  O  O410  1  0.750648  0.500404  0.507451  1
  O  O411  1  0.949360  -0.000000  0.510783  1
  O  O412  1  0.949799  0.500801  0.505076  1
  O  O413  1  0.000000  0.124592  0.588663  1
  O  O414  1  0.928504  0.000000  0.588667  1
  O  O415  1  0.928453  0.500605  0.427311  1
  O  O416  1  -0.000000  0.375567  0.427280  1
  O  O417  1  0.998446  0.249613  0.508054  1
  O  O418  1  -0.000000  0.400812  0.528906  1
  O  O419  1  0.000000  0.900912  0.487077  1
  O  O420  1  0.149841  0.259891  0.704845  1
  O  O421  1  0.149735  0.740196  0.704831  1
  O  O422  1  0.149737  0.239782  0.634151  1
  O  O423  1  0.149825  0.759352  0.634132  1
  O  O424  1  0.319412  0.750103  0.669484  1
  O  O425  1  0.180506  0.250034  0.669495  1
  O  O426  1  0.319452  0.249987  0.669498  1
  O  O427  1  0.180534  0.749916  0.669486  1
  O  O428  1  0.249959  0.750130  0.695450  1
  O  O429  1  0.250040  0.249990  0.695463  1
  O  O430  1  0.249952  0.250450  0.643533  1
  O  O431  1  0.250033  0.750166  0.643524  1
  O  O432  1  0.309260  0.600231  0.690470  1
  O  O433  1  0.190124  0.100239  0.690510  1
  O  O434  1  0.309947  0.399834  0.690549  1
  O  O435  1  0.189964  0.899852  0.690518  1
  O  O436  1  0.190322  0.399765  0.648414  1
  O  O437  1  0.309146  0.899986  0.648465  1
  O  O438  1  0.191138  0.600142  0.648459  1
  O  O439  1  0.308770  0.100296  0.648464  1
  O  O440  1  0.095160  0.408946  0.699261  1
  O  O441  1  0.094686  0.591637  0.699144  1
  O  O442  1  0.094766  0.090834  0.639675  1
  O  O443  1  0.094669  0.907882  0.639863  1
  O  O444  1  0.084712  0.336884  0.731784  1
  O  O445  1  0.085106  0.662193  0.731807  1
  O  O446  1  0.084593  0.163152  0.607175  1
  O  O447  1  0.085435  0.838047  0.607120  1
  O  O448  1  0.050380  0.250067  0.701269  1
  O  O449  1  0.050008  0.750454  0.701653  1
  O  O450  1  0.050328  0.250104  0.637702  1
  O  O451  1  0.050074  0.748927  0.637074  1
  O  O452  1  0.150776  0.500405  0.674902  1
  O  O453  1  0.151708  -0.000000  0.663688  1
  O  O454  1  0.250522  0.000000  0.669984  1
  O  O455  1  0.249345  0.498429  0.669855  1
  O  O456  1  0.049940  0.499540  0.672516  1
  O  O457  1  0.050671  0.000000  0.666653  1
  O  O458  1  0.071622  0.499500  0.750179  1
  O  O459  1  0.000000  0.599140  0.648625  1
  O  O460  1  -0.000000  0.099085  0.690399  1
  O  O461  1  0.071567  -0.000000  0.588772  1
  O  O462  1  0.001098  0.751145  0.669318  1
  O  O463  1  0.000000  0.875374  0.588733  1
  O  O464  1  0.085472  0.661785  0.768586  1
  O  O465  1  0.084765  0.336986  0.768642  1
  O  O466  1  0.000000  0.624497  0.750263  1
  O  O467  1  0.350260  0.759512  0.704799  1
  O  O468  1  0.649861  0.759292  0.704857  1
  O  O469  1  0.350293  0.240139  0.704824  1
  O  O470  1  0.649826  0.240393  0.704802  1
  O  O471  1  0.649857  0.740442  0.634141  1
  O  O472  1  0.350323  0.740419  0.634178  1
  O  O473  1  0.649838  0.259594  0.634131  1
  O  O474  1  0.350229  0.259386  0.634158  1
  O  O475  1  0.594804  0.907951  0.699119  1
  O  O476  1  0.404790  0.908855  0.699184  1
  O  O477  1  0.595353  0.090884  0.699255  1
  O  O478  1  0.405508  0.091724  0.699093  1
  O  O479  1  0.404911  0.590913  0.639718  1
  O  O480  1  0.594761  0.591823  0.639861  1
  O  O481  1  0.405428  0.407835  0.639937  1
  O  O482  1  0.595248  0.408920  0.639721  1
  O  O483  1  0.585590  0.838170  0.731910  1
  O  O484  1  0.415358  0.836905  0.731686  1
  O  O485  1  0.584784  0.162872  0.731743  1
  O  O486  1  0.414791  0.162155  0.731818  1
  O  O487  1  0.415414  0.663144  0.607268  1
  O  O488  1  0.585589  0.661645  0.607089  1
  O  O489  1  0.414599  0.338045  0.607160  1
  O  O490  1  0.584954  0.337393  0.607170  1
  O  O491  1  0.550065  0.749211  0.701991  1
  O  O492  1  0.449764  0.750070  0.701205  1
  O  O493  1  0.550399  0.249721  0.701239  1
  O  O494  1  0.450109  0.250679  0.701795  1
  O  O495  1  0.449785  0.749841  0.637789  1
  O  O496  1  0.550072  0.750621  0.637013  1
  O  O497  1  0.450064  0.248924  0.637056  1
  O  O498  1  0.550371  0.250086  0.637575  1
  O  O499  1  0.349051  -0.000000  0.674912  1
  O  O500  1  0.651048  -0.000000  0.674919  1
  O  O501  1  0.650612  0.500174  0.664134  1
  O  O502  1  0.348080  0.500008  0.663717  1
  O  O503  1  0.550481  -0.000000  0.672406  1
  O  O504  1  0.449653  0.000000  0.672333  1
  O  O505  1  0.448912  0.500631  0.666779  1
  O  O506  1  0.549915  0.499416  0.666460  1
  O  O507  1  0.500152  0.624569  0.588790  1
  O  O508  1  0.499892  0.375413  0.588797  1
  O  O509  1  0.428494  0.500362  0.588855  1
  O  O510  1  0.500312  0.900778  0.648561  1
  O  O511  1  0.500123  0.099141  0.648562  1
  O  O512  1  0.500227  0.599180  0.690402  1
  O  O513  1  0.499996  0.400832  0.690394  1
  O  O514  1  0.502207  0.750057  0.669501  1
  O  O515  1  0.498462  0.250330  0.669407  1
  O  O516  1  0.428495  -0.000000  0.750081  1
  O  O517  1  0.500119  0.875421  0.750178  1
  O  O518  1  0.414697  0.161621  0.768613  1
  O  O519  1  0.584756  0.163044  0.768607  1
  O  O520  1  0.414731  0.837737  0.768517  1
  O  O521  1  0.584779  0.837686  0.768725  1
  O  O522  1  0.571558  0.000000  0.750270  1
  O  O523  1  0.499905  0.124542  0.750201  1
  O  O524  1  0.850253  0.259751  0.704829  1
  O  O525  1  0.850264  0.740021  0.704838  1
  O  O526  1  0.850273  0.239979  0.634123  1
  O  O527  1  0.850241  0.760224  0.634133  1
  O  O528  1  0.819599  0.250001  0.669464  1
  O  O529  1  0.680599  0.749954  0.669495  1
  O  O530  1  0.819608  0.749963  0.669489  1
  O  O531  1  0.680623  0.249961  0.669465  1
  O  O532  1  0.750077  0.249706  0.695418  1
  O  O533  1  0.750077  0.750238  0.695440  1
  O  O534  1  0.750082  0.749485  0.643548  1
  O  O535  1  0.750079  0.250037  0.643512  1
  O  O536  1  0.810077  0.100089  0.690469  1
  O  O537  1  0.691144  0.600122  0.690509  1
  O  O538  1  0.810085  0.899826  0.690481  1
  O  O539  1  0.691102  0.399752  0.690483  1
  O  O540  1  0.691148  0.899690  0.648453  1
  O  O541  1  0.809977  0.399809  0.648423  1
  O  O542  1  0.691016  0.100119  0.648460  1
  O  O543  1  0.810034  0.600234  0.648450  1
  O  O544  1  0.905625  0.407891  0.699079  1
  O  O545  1  0.904951  0.590798  0.699328  1
  O  O546  1  0.905651  0.091704  0.639815  1
  O  O547  1  0.905515  0.908733  0.639710  1
  O  O548  1  0.914619  0.338258  0.731856  1
  O  O549  1  0.915344  0.663143  0.731810  1
  O  O550  1  0.914688  0.161772  0.607091  1
  O  O551  1  0.915073  0.837248  0.607092  1
  O  O552  1  0.950099  0.248909  0.701938  1
  O  O553  1  0.949737  0.749752  0.701287  1
  O  O554  1  0.950071  0.250869  0.637052  1
  O  O555  1  0.949781  0.749396  0.637395  1
  O  O556  1  0.847893  0.499697  0.675347  1
  O  O557  1  0.848343  0.000000  0.663619  1
  O  O558  1  0.749192  0.500006  0.668869  1
  O  O559  1  0.749522  0.000000  0.669947  1
  O  O560  1  0.948813  0.500713  0.672228  1
  O  O561  1  0.949359  -0.000000  0.666692  1
  O  O562  1  0.998195  0.249917  0.669489  1
  O  O563  1  0.000000  0.400910  0.648620  1
  O  O564  1  -0.000000  0.900863  0.690420  1
  O  O565  1  0.915337  0.663191  0.768663  1
  O  O566  1  0.914763  0.338131  0.768615  1
  O  O567  1  0.928453  0.500605  0.750245  1
  O  O568  1  0.000000  0.375567  0.750214  1
  Si  Si569  1  0.000000  0.787458  0.163621  1
  Si  Si570  1  0.307524  0.214571  0.206391  1
  Si  Si571  1  0.192654  0.714587  0.206409  1
  Si  Si572  1  0.307736  0.785666  0.206413  1
  Si  Si573  1  0.192413  0.285511  0.206385  1
  Si  Si574  1  0.192440  0.785502  0.163749  1
  Si  Si575  1  0.307778  0.285549  0.163740  1
  Si  Si576  1  0.192579  0.214656  0.163724  1
  Si  Si577  1  0.307641  0.714734  0.163756  1
  Si  Si578  1  0.096456  0.810563  0.225754  1
  Si  Si579  1  0.096215  0.189197  0.225647  1
  Si  Si580  1  0.096301  0.689467  0.144406  1
  Si  Si581  1  0.096363  0.310893  0.144496  1
  Si  Si582  1  0.304856  0.500109  0.174807  1
  Si  Si583  1  0.195314  0.000000  0.174799  1
  Si  Si584  1  0.195613  0.500037  0.195315  1
  Si  Si585  1  0.304640  0.000000  0.195248  1
  Si  Si586  1  0.098395  0.000000  0.201989  1
  Si  Si587  1  0.098471  0.500279  0.168166  1
  Si  Si588  1  0.061407  0.611456  0.104338  1
  Si  Si589  1  0.061127  0.387634  0.104344  1
  Si  Si590  1  0.000000  0.499954  0.195012  1
  Si  Si591  1  0.000000  -0.000000  0.175125  1
  Si  Si592  1  0.000000  0.712552  0.206530  1
  Si  Si593  1  -0.000000  0.212643  0.163633  1
  Si  Si594  1  0.438866  0.887773  0.104242  1
  Si  Si595  1  0.438699  0.111547  0.104327  1
  Si  Si596  1  0.561152  0.112272  0.104317  1
  Si  Si597  1  0.561364  0.611642  0.265761  1
  Si  Si598  1  0.499997  0.000000  0.195143  1
  Si  Si599  1  0.596165  0.310378  0.225672  1
  Si  Si600  1  0.403586  0.310779  0.225776  1
  Si  Si601  1  0.596381  0.689289  0.225661  1
  Si  Si602  1  0.403800  0.689445  0.225803  1
  Si  Si603  1  0.403908  0.189206  0.144442  1
  Si  Si604  1  0.596208  0.189223  0.144469  1
  Si  Si605  1  0.403722  0.810817  0.144369  1
  Si  Si606  1  0.596020  0.810659  0.144552  1
  Si  Si607  1  0.598700  0.499824  0.202034  1
  Si  Si608  1  0.401663  0.500151  0.202067  1
  Si  Si609  1  0.401949  0.000000  0.168187  1
  Si  Si610  1  0.598154  0.000000  0.168212  1
  Si  Si611  1  0.500122  0.499939  0.175278  1
  Si  Si612  1  0.499914  0.787184  0.206527  1
  Si  Si613  1  0.561333  0.888408  0.104409  1
  Si  Si614  1  0.499707  0.212598  0.206558  1
  Si  Si615  1  0.499666  0.712363  0.163612  1
  Si  Si616  1  0.499948  0.287441  0.163643  1
  Si  Si617  1  0.901855  0.499750  0.168176  1
  Si  Si618  1  0.901666  -0.000000  0.201962  1
  Si  Si619  1  0.807618  0.714490  0.206387  1
  Si  Si620  1  0.692409  0.214465  0.206374  1
  Si  Si621  1  0.807475  0.285508  0.206371  1
  Si  Si622  1  0.692557  0.785547  0.206406  1
  Si  Si623  1  0.692451  0.285338  0.163700  1
  Si  Si624  1  0.807543  0.785372  0.163720  1
  Si  Si625  1  0.692343  0.714583  0.163739  1
  Si  Si626  1  0.807634  0.214473  0.163711  1
  Si  Si627  1  0.903925  0.810677  0.225593  1
  Si  Si628  1  0.903636  0.189458  0.225714  1
  Si  Si629  1  0.903804  0.689187  0.144523  1
  Si  Si630  1  0.903841  0.310510  0.144428  1
  Si  Si631  1  0.804760  -0.000000  0.174774  1
  Si  Si632  1  0.695377  0.499940  0.174726  1
  Si  Si633  1  0.695496  -0.000000  0.195274  1
  Si  Si634  1  0.804574  0.500011  0.195274  1
  Si  Si635  1  0.938966  0.887643  0.265745  1
  Si  Si636  1  0.000000  0.287399  0.206553  1
  Si  Si637  1  0.938662  0.388657  0.104364  1
  Si  Si638  1  0.938638  0.111441  0.265759  1
  Si  Si639  1  0.938953  0.612460  0.104374  1
  Si  Si640  1  -0.000000  0.712495  0.325012  1
  Si  Si641  1  0.307484  0.714535  0.367871  1
  Si  Si642  1  0.192443  0.214593  0.367891  1
  Si  Si643  1  0.307635  0.285439  0.367905  1
  Si  Si644  1  0.192343  0.785491  0.367887  1
  Si  Si645  1  0.192299  0.285404  0.325214  1
  Si  Si646  1  0.307578  0.785638  0.325219  1
  Si  Si647  1  0.192534  0.714467  0.325225  1
  Si  Si648  1  0.307434  0.214640  0.325232  1
  Si  Si649  1  0.096233  0.310744  0.387127  1
  Si  Si650  1  0.096180  0.689370  0.387178  1
  Si  Si651  1  0.096086  0.189137  0.305977  1
  Si  Si652  1  0.096363  0.810397  0.305868  1
  Si  Si653  1  0.304496  0.000000  0.336328  1
  Si  Si654  1  0.195251  0.499880  0.336285  1
  Si  Si655  1  0.195234  -0.000000  0.356828  1
  Si  Si656  1  0.304465  0.499908  0.356819  1
  Si  Si657  1  0.098099  0.500123  0.363453  1
  Si  Si658  1  0.098378  0.000000  0.329612  1
  Si  Si659  1  0.000000  0.000000  0.356487  1
  Si  Si660  1  0.061436  0.888553  0.265813  1
  Si  Si661  1  0.000000  0.787366  0.367929  1
  Si  Si662  1  0.061095  0.112383  0.265800  1
  Si  Si663  1  0.000000  0.787458  0.486555  1
  Si  Si664  1  0.307524  0.214571  0.529325  1
  Si  Si665  1  0.192654  0.714587  0.529342  1
  Si  Si666  1  0.307736  0.785666  0.529346  1
  Si  Si667  1  0.192413  0.285511  0.529319  1
  Si  Si668  1  0.192440  0.785502  0.486683  1
  Si  Si669  1  0.307778  0.285549  0.486674  1
  Si  Si670  1  0.192579  0.214656  0.486657  1
  Si  Si671  1  0.307641  0.714734  0.486690  1
  Si  Si672  1  0.096456  0.810563  0.548688  1
  Si  Si673  1  0.096215  0.189197  0.548581  1
  Si  Si674  1  0.096301  0.689467  0.467340  1
  Si  Si675  1  0.096363  0.310893  0.467429  1
  Si  Si676  1  0.304856  0.500109  0.497741  1
  Si  Si677  1  0.195314  -0.000000  0.497732  1
  Si  Si678  1  0.195613  0.500037  0.518248  1
  Si  Si679  1  0.304640  -0.000000  0.518182  1
  Si  Si680  1  0.098395  0.000000  0.524923  1
  Si  Si681  1  0.098471  0.500279  0.491099  1
  Si  Si682  1  0.061407  0.611456  0.427272  1
  Si  Si683  1  0.061127  0.387634  0.427277  1
  Si  Si684  1  0.000000  0.499954  0.517946  1
  Si  Si685  1  0.000000  0.000000  0.498058  1
  Si  Si686  1  -0.000000  0.712552  0.529464  1
  Si  Si687  1  -0.000000  0.212643  0.486566  1
  Si  Si688  1  0.499729  0.500031  0.356499  1
  Si  Si689  1  0.596470  0.810544  0.387280  1
  Si  Si690  1  0.403828  0.810623  0.387041  1
  Si  Si691  1  0.596316  0.189167  0.387090  1
  Si  Si692  1  0.403841  0.189339  0.387181  1
  Si  Si693  1  0.403881  0.689308  0.306052  1
  Si  Si694  1  0.596453  0.689259  0.305849  1
  Si  Si695  1  0.403704  0.310415  0.305909  1
  Si  Si696  1  0.596351  0.310829  0.305951  1
  Si  Si697  1  0.598374  0.000000  0.363464  1
  Si  Si698  1  0.401800  -0.000000  0.363411  1
  Si  Si699  1  0.401404  0.499729  0.329650  1
  Si  Si700  1  0.598060  0.500152  0.329655  1
  Si  Si701  1  0.500137  0.000000  0.336585  1
  Si  Si702  1  0.438904  0.612223  0.265913  1
  Si  Si703  1  0.499953  0.287358  0.367958  1
  Si  Si704  1  0.500423  0.787322  0.325102  1
  Si  Si705  1  0.499966  0.212565  0.325042  1
  Si  Si706  1  0.500408  0.712625  0.368021  1
  Si  Si707  1  0.438866  0.887773  0.427176  1
  Si  Si708  1  0.438674  0.388429  0.265855  1
  Si  Si709  1  0.438699  0.111547  0.427260  1
  Si  Si710  1  0.561152  0.112272  0.427250  1
  Si  Si711  1  0.561147  0.387772  0.265802  1
  Si  Si712  1  0.561364  0.611642  0.588695  1
  Si  Si713  1  0.499997  -0.000000  0.518077  1
  Si  Si714  1  0.596165  0.310378  0.548606  1
  Si  Si715  1  0.403586  0.310779  0.548710  1
  Si  Si716  1  0.596381  0.689289  0.548595  1
  Si  Si717  1  0.403800  0.689445  0.548737  1
  Si  Si718  1  0.403908  0.189206  0.467376  1
  Si  Si719  1  0.596208  0.189223  0.467402  1
  Si  Si720  1  0.403722  0.810817  0.467303  1
  Si  Si721  1  0.596020  0.810659  0.467486  1
  Si  Si722  1  0.598700  0.499824  0.524967  1
  Si  Si723  1  0.401663  0.500151  0.525000  1
  Si  Si724  1  0.401949  -0.000000  0.491120  1
  Si  Si725  1  0.598154  -0.000000  0.491146  1
  Si  Si726  1  0.500122  0.499939  0.498212  1
  Si  Si727  1  0.499914  0.787184  0.529461  1
  Si  Si728  1  0.561333  0.888408  0.427343  1
  Si  Si729  1  0.499707  0.212598  0.529492  1
  Si  Si730  1  0.499666  0.712363  0.486546  1
  Si  Si731  1  0.499948  0.287441  0.486577  1
  Si  Si732  1  -0.000000  0.212512  0.368014  1
  Si  Si733  1  -0.000000  0.287483  0.325108  1
  Si  Si734  1  0.807708  0.214445  0.367859  1
  Si  Si735  1  0.692577  0.714481  0.367886  1
  Si  Si736  1  0.807710  0.785476  0.367884  1
  Si  Si737  1  0.692569  0.285399  0.367857  1
  Si  Si738  1  0.692585  0.785323  0.325230  1
  Si  Si739  1  0.807696  0.285426  0.325195  1
  Si  Si740  1  0.692547  0.214474  0.325208  1
  Si  Si741  1  0.807756  0.714554  0.325218  1
  Si  Si742  1  0.903792  0.310487  0.387240  1
  Si  Si743  1  0.903850  0.689155  0.387145  1
  Si  Si744  1  0.903820  0.189274  0.305850  1
  Si  Si745  1  0.903863  0.810760  0.305888  1
  Si  Si746  1  0.804593  0.499979  0.336247  1
  Si  Si747  1  0.695530  -0.000000  0.336306  1
  Si  Si748  1  0.695372  0.499967  0.356761  1
  Si  Si749  1  0.804834  -0.000000  0.356769  1
  Si  Si750  1  0.901324  0.499724  0.363500  1
  Si  Si751  1  0.901769  0.000000  0.329599  1
  Si  Si752  1  0.000000  0.500048  0.336656  1
  Si  Si753  1  0.901855  0.499750  0.491110  1
  Si  Si754  1  0.901666  -0.000000  0.524896  1
  Si  Si755  1  0.807618  0.714490  0.529321  1
  Si  Si756  1  0.692409  0.214465  0.529308  1
  Si  Si757  1  0.807475  0.285508  0.529304  1
  Si  Si758  1  0.692557  0.785547  0.529340  1
  Si  Si759  1  0.692451  0.285338  0.486634  1
  Si  Si760  1  0.807543  0.785372  0.486653  1
  Si  Si761  1  0.692343  0.714583  0.486673  1
  Si  Si762  1  0.807634  0.214473  0.486645  1
  Si  Si763  1  0.903925  0.810677  0.548527  1
  Si  Si764  1  0.903636  0.189458  0.548648  1
  Si  Si765  1  0.903804  0.689187  0.467457  1
  Si  Si766  1  0.903841  0.310510  0.467361  1
  Si  Si767  1  0.804760  0.000000  0.497707  1
  Si  Si768  1  0.695377  0.499940  0.497660  1
  Si  Si769  1  0.695496  -0.000000  0.518208  1
  Si  Si770  1  0.804574  0.500011  0.518208  1
  Si  Si771  1  0.938966  0.887643  0.588679  1
  Si  Si772  1  0.000000  0.287399  0.529486  1
  Si  Si773  1  0.938662  0.388657  0.427298  1
  Si  Si774  1  0.938638  0.111441  0.588693  1
  Si  Si775  1  0.938953  0.612460  0.427307  1
  Si  Si776  1  0.000000  0.712495  0.647946  1
  Si  Si777  1  0.307484  0.714535  0.690804  1
  Si  Si778  1  0.192443  0.214593  0.690825  1
  Si  Si779  1  0.307635  0.285439  0.690839  1
  Si  Si780  1  0.192343  0.785491  0.690820  1
  Si  Si781  1  0.192299  0.285404  0.648148  1
  Si  Si782  1  0.307578  0.785638  0.648153  1
  Si  Si783  1  0.192534  0.714467  0.648159  1
  Si  Si784  1  0.307434  0.214640  0.648166  1
  Si  Si785  1  0.096233  0.310744  0.710061  1
  Si  Si786  1  0.096180  0.689370  0.710111  1
  Si  Si787  1  0.096086  0.189137  0.628910  1
  Si  Si788  1  0.096363  0.810397  0.628802  1
  Si  Si789  1  0.304496  0.000000  0.659262  1
  Si  Si790  1  0.195251  0.499880  0.659219  1
  Si  Si791  1  0.195234  0.000000  0.679761  1
  Si  Si792  1  0.304465  0.499908  0.679753  1
  Si  Si793  1  0.098099  0.500123  0.686387  1
  Si  Si794  1  0.098378  -0.000000  0.652546  1
  Si  Si795  1  0.000000  0.000000  0.679421  1
  Si  Si796  1  0.061436  0.888553  0.588747  1
  Si  Si797  1  -0.000000  0.787366  0.690862  1
  Si  Si798  1  0.061095  0.112383  0.588734  1
  Si  Si799  1  0.061407  0.611456  0.750206  1
  Si  Si800  1  0.061127  0.387634  0.750211  1
  Si  Si801  1  0.499729  0.500031  0.679432  1
  Si  Si802  1  0.596470  0.810544  0.710214  1
  Si  Si803  1  0.403828  0.810623  0.709975  1
  Si  Si804  1  0.596316  0.189167  0.710024  1
  Si  Si805  1  0.403841  0.189339  0.710115  1
  Si  Si806  1  0.403881  0.689308  0.628986  1
  Si  Si807  1  0.596453  0.689259  0.628783  1
  Si  Si808  1  0.403704  0.310415  0.628843  1
  Si  Si809  1  0.596351  0.310829  0.628885  1
  Si  Si810  1  0.598374  0.000000  0.686398  1
  Si  Si811  1  0.401800  0.000000  0.686345  1
  Si  Si812  1  0.401404  0.499729  0.652584  1
  Si  Si813  1  0.598060  0.500152  0.652589  1
  Si  Si814  1  0.500137  0.000000  0.659519  1
  Si  Si815  1  0.438904  0.612223  0.588847  1
  Si  Si816  1  0.499953  0.287358  0.690891  1
  Si  Si817  1  0.500423  0.787322  0.648036  1
  Si  Si818  1  0.499966  0.212565  0.647975  1
  Si  Si819  1  0.500408  0.712625  0.690955  1
  Si  Si820  1  0.438866  0.887773  0.750110  1
  Si  Si821  1  0.438674  0.388429  0.588789  1
  Si  Si822  1  0.438699  0.111547  0.750194  1
  Si  Si823  1  0.561152  0.112272  0.750184  1
  Si  Si824  1  0.561147  0.387772  0.588736  1
  Si  Si825  1  0.561333  0.888408  0.750276  1
  Si  Si826  1  -0.000000  0.212512  0.690947  1
  Si  Si827  1  -0.000000  0.287483  0.648042  1
  Si  Si828  1  0.807708  0.214445  0.690792  1
  Si  Si829  1  0.692577  0.714481  0.690820  1
  Si  Si830  1  0.807710  0.785476  0.690818  1
  Si  Si831  1  0.692569  0.285399  0.690791  1
  Si  Si832  1  0.692585  0.785323  0.648164  1
  Si  Si833  1  0.807696  0.285426  0.648128  1
  Si  Si834  1  0.692547  0.214474  0.648142  1
  Si  Si835  1  0.807756  0.714554  0.648151  1
  Si  Si836  1  0.903792  0.310487  0.710174  1
  Si  Si837  1  0.903850  0.689155  0.710079  1
  Si  Si838  1  0.903820  0.189274  0.628784  1
  Si  Si839  1  0.903863  0.810760  0.628822  1
  Si  Si840  1  0.804593  0.499979  0.659180  1
  Si  Si841  1  0.695530  0.000000  0.659240  1
  Si  Si842  1  0.695372  0.499967  0.679695  1
  Si  Si843  1  0.804834  -0.000000  0.679703  1
  Si  Si844  1  0.901324  0.499724  0.686434  1
  Si  Si845  1  0.901769  -0.000000  0.652533  1
  Si  Si846  1  0.000000  0.500048  0.659590  1
  Si  Si847  1  0.938662  0.388657  0.750232  1
  Si  Si848  1  0.938953  0.612460  0.750241  1
  H  H849  1  0.084712  0.336884  0.072826  1
  H  H850  1  0.085106  0.662193  0.072848  1
  H  H851  1  0.585590  0.838170  0.072951  1
  H  H852  1  0.415358  0.836905  0.072728  1
  H  H853  1  0.584784  0.162872  0.072784  1
  H  H854  1  0.414791  0.162155  0.072859  1
  H  H855  1  0.914619  0.338258  0.072898  1
  H  H856  1  0.915344  0.663143  0.072852  1
  H  H857  1  0.085472  0.661785  0.781677  1
  H  H858  1  0.084765  0.336986  0.781733  1
  H  H859  1  0.414697  0.161621  0.781704  1
  H  H860  1  0.584756  0.163044  0.781698  1
  H  H861  1  0.414731  0.837737  0.781608  1
  H  H862  1  0.584779  0.837686  0.781816  1
  H  H863  1  0.915337  0.663191  0.781754  1
  H  H864  1  0.914763  0.338131  0.781706  1
