# generated using pymatgen
data_Si50H2O101
_symmetry_space_group_name_H-M   'P 1'
_cell_length_a   25.36503145
_cell_length_b   13.87769178
_cell_length_c   85.88576025
_cell_angle_alpha   90.00000000
_cell_angle_beta   90.00000000
_cell_angle_gamma   90.00000000
_symmetry_Int_Tables_number   1
_chemical_formula_structural   Si50H2O101
_chemical_formula_sum   'Si400 H16 O808'
_cell_volume   30232.4822918
_cell_formula_units_Z   8
loop_
 _symmetry_equiv_pos_site_id
 _symmetry_equiv_pos_as_xyz
  1  'x, y, z'
loop_
 _atom_site_type_symbol
 _atom_site_label
 _atom_site_symmetry_multiplicity
 _atom_site_fract_x
 _atom_site_fract_y
 _atom_site_fract_z
 _atom_site_occupancy
  O  O1  1  0.149841  0.259891  0.146947  1
  O  O2  1  0.149735  0.740196  0.146935  1
  O  O3  1  0.149737  0.239782  0.090358  1
  O  O4  1  0.149825  0.759352  0.090343  1
  O  O5  1  0.319412  0.750103  0.118641  1
  O  O6  1  0.180506  0.250034  0.118650  1
  O  O7  1  0.319452  0.249987  0.118652  1
  O  O8  1  0.180534  0.749916  0.118643  1
  O  O9  1  0.249959  0.750130  0.139426  1
  O  O10  1  0.250040  0.249990  0.139436  1
  O  O11  1  0.249952  0.250450  0.097868  1
  O  O12  1  0.250033  0.750166  0.097861  1
  O  O13  1  0.309260  0.600231  0.135440  1
  O  O14  1  0.190124  0.100239  0.135472  1
  O  O15  1  0.309947  0.399834  0.135504  1
  O  O16  1  0.189964  0.899852  0.135478  1
  O  O17  1  0.190322  0.399765  0.101775  1
  O  O18  1  0.309146  0.899986  0.101816  1
  O  O19  1  0.191138  0.600142  0.101812  1
  O  O20  1  0.308770  0.100296  0.101815  1
  O  O21  1  0.095160  0.408946  0.142477  1
  O  O22  1  0.094686  0.591637  0.142383  1
  O  O23  1  0.094766  0.090834  0.094780  1
  O  O24  1  0.094669  0.907882  0.094930  1
  O  O25  1  0.084712  0.336884  0.168511  1
  O  O26  1  0.085106  0.662193  0.168529  1
  O  O27  1  0.084593  0.163152  0.068765  1
  O  O28  1  0.085435  0.838047  0.068720  1
  O  O29  1  0.050380  0.250067  0.144084  1
  O  O30  1  0.050008  0.750454  0.144392  1
  O  O31  1  0.050328  0.250104  0.093201  1
  O  O32  1  0.050074  0.748927  0.092698  1
  O  O33  1  0.150776  0.500405  0.122978  1
  O  O34  1  0.151708  -0.000000  0.114001  1
  O  O35  1  0.250522  -0.000000  0.119041  1
  O  O36  1  0.249345  0.498429  0.118938  1
  O  O37  1  0.049940  0.499540  0.121068  1
  O  O38  1  0.050671  0.000000  0.116375  1
  O  O39  1  0.071622  0.499500  0.183235  1
  O  O40  1  0.000000  0.599140  0.101944  1
  O  O41  1  -0.000000  0.099085  0.135383  1
  O  O42  1  0.001098  0.751145  0.118508  1
  O  O43  1  0.149893  0.759406  0.276182  1
  O  O44  1  0.149789  0.240032  0.276142  1
  O  O45  1  0.149844  0.740209  0.219596  1
  O  O46  1  0.149918  0.259800  0.219569  1
  O  O47  1  0.319560  0.250091  0.247886  1
  O  O48  1  0.180611  0.749988  0.247891  1
  O  O49  1  0.319603  0.750136  0.247892  1
  O  O50  1  0.180584  0.250118  0.247861  1
  O  O51  1  0.250004  0.250240  0.268643  1
  O  O52  1  0.250140  0.750411  0.268662  1
  O  O53  1  0.250059  0.750106  0.227122  1
  O  O54  1  0.250144  0.250307  0.227100  1
  O  O55  1  0.308978  0.100245  0.264668  1
  O  O56  1  0.191359  0.600245  0.264713  1
  O  O57  1  0.309426  0.900013  0.264696  1
  O  O58  1  0.190624  0.399879  0.264717  1
  O  O59  1  0.190039  0.899876  0.231047  1
  O  O60  1  0.310279  0.399940  0.231045  1
  O  O61  1  0.190387  0.100295  0.231053  1
  O  O62  1  0.309579  0.600411  0.231067  1
  O  O63  1  0.094773  0.908060  0.271596  1
  O  O64  1  0.094765  0.091049  0.271700  1
  O  O65  1  0.094507  0.592057  0.224208  1
  O  O66  1  0.095510  0.409232  0.224010  1
  O  O67  1  0.085529  0.838237  0.297802  1
  O  O68  1  0.084909  0.162879  0.297759  1
  O  O69  1  0.085472  0.661785  0.197970  1
  O  O70  1  0.084765  0.336986  0.198015  1
  O  O71  1  0.050101  0.749191  0.273845  1
  O  O72  1  0.050301  0.250176  0.273414  1
  O  O73  1  0.049988  0.750979  0.221932  1
  O  O74  1  0.050443  0.250458  0.222455  1
  O  O75  1  0.151702  0.000000  0.252496  1
  O  O76  1  0.151267  0.500678  0.243484  1
  O  O77  1  0.249737  0.498791  0.247587  1
  O  O78  1  0.250533  -0.000000  0.247522  1
  O  O79  1  0.050662  -0.000000  0.250143  1
  O  O80  1  0.050646  0.498965  0.245576  1
  O  O81  1  0.000000  0.624497  0.183303  1
  O  O82  1  0.000000  0.099178  0.231127  1
  O  O83  1  0.001875  0.750298  0.247901  1
  O  O84  1  0.000000  0.599139  0.264599  1
  O  O85  1  0.350260  0.759512  0.146910  1
  O  O86  1  0.649861  0.759292  0.146957  1
  O  O87  1  0.350293  0.240139  0.146930  1
  O  O88  1  0.649826  0.240393  0.146913  1
  O  O89  1  0.649857  0.740442  0.090350  1
  O  O90  1  0.350323  0.740419  0.090380  1
  O  O91  1  0.649838  0.259594  0.090342  1
  O  O92  1  0.350229  0.259386  0.090364  1
  O  O93  1  0.594804  0.907951  0.142363  1
  O  O94  1  0.404790  0.908855  0.142416  1
  O  O95  1  0.595353  0.090884  0.142472  1
  O  O96  1  0.405508  0.091724  0.142342  1
  O  O97  1  0.404911  0.590913  0.094815  1
  O  O98  1  0.594761  0.591823  0.094928  1
  O  O99  1  0.405428  0.407835  0.094989  1
  O  O100  1  0.595248  0.408920  0.094817  1
  O  O101  1  0.585590  0.838170  0.168611  1
  O  O102  1  0.415358  0.836905  0.168433  1
  O  O103  1  0.584784  0.162872  0.168478  1
  O  O104  1  0.414791  0.162155  0.168538  1
  O  O105  1  0.415414  0.663144  0.068839  1
  O  O106  1  0.585589  0.661645  0.068696  1
  O  O107  1  0.414599  0.338045  0.068752  1
  O  O108  1  0.584954  0.337393  0.068761  1
  O  O109  1  0.550065  0.749211  0.144662  1
  O  O110  1  0.449764  0.750070  0.144033  1
  O  O111  1  0.550399  0.249721  0.144061  1
  O  O112  1  0.450109  0.250679  0.144505  1
  O  O113  1  0.449785  0.749841  0.093270  1
  O  O114  1  0.550072  0.750621  0.092649  1
  O  O115  1  0.450064  0.248924  0.092683  1
  O  O116  1  0.550371  0.250086  0.093099  1
  O  O117  1  0.349051  -0.000000  0.122986  1
  O  O118  1  0.651048  -0.000000  0.122992  1
  O  O119  1  0.650612  0.500174  0.114359  1
  O  O120  1  0.348080  0.500008  0.114025  1
  O  O121  1  0.550481  -0.000000  0.120980  1
  O  O122  1  0.449653  -0.000000  0.120922  1
  O  O123  1  0.448912  0.500631  0.116476  1
  O  O124  1  0.549915  0.499416  0.116221  1
  O  O125  1  0.500312  0.900778  0.101893  1
  O  O126  1  0.500123  0.099141  0.101894  1
  O  O127  1  0.500227  0.599180  0.135386  1
  O  O128  1  0.499996  0.400832  0.135379  1
  O  O129  1  0.502207  0.750057  0.118655  1
  O  O130  1  0.498462  0.250330  0.118580  1
  O  O131  1  0.428495  -0.000000  0.183157  1
  O  O132  1  0.500119  0.875421  0.183234  1
  O  O133  1  0.350213  0.259428  0.276190  1
  O  O134  1  0.649723  0.259405  0.276173  1
  O  O135  1  0.350345  0.740456  0.276194  1
  O  O136  1  0.649831  0.740742  0.276199  1
  O  O137  1  0.649816  0.240070  0.219560  1
  O  O138  1  0.350329  0.239832  0.219618  1
  O  O139  1  0.649710  0.760089  0.219618  1
  O  O140  1  0.350224  0.759978  0.219587  1
  O  O141  1  0.594909  0.408373  0.271679  1
  O  O142  1  0.404938  0.408602  0.271708  1
  O  O143  1  0.595607  0.591031  0.271751  1
  O  O144  1  0.405481  0.591684  0.271703  1
  O  O145  1  0.405863  0.091723  0.224219  1
  O  O146  1  0.595080  0.091056  0.224039  1
  O  O147  1  0.405373  0.908590  0.224086  1
  O  O148  1  0.594469  0.908382  0.224223  1
  O  O149  1  0.584711  0.336829  0.297765  1
  O  O150  1  0.414646  0.338055  0.297830  1
  O  O151  1  0.584837  0.662826  0.297745  1
  O  O152  1  0.414802  0.662449  0.297870  1
  O  O153  1  0.414697  0.161621  0.197992  1
  O  O154  1  0.584756  0.163044  0.197987  1
  O  O155  1  0.414731  0.837737  0.197915  1
  O  O156  1  0.584779  0.837686  0.198081  1
  O  O157  1  0.550230  0.249726  0.273382  1
  O  O158  1  0.449945  0.249787  0.273786  1
  O  O159  1  0.550356  0.749373  0.273310  1
  O  O160  1  0.450084  0.750740  0.273819  1
  O  O161  1  0.450102  0.251141  0.221943  1
  O  O162  1  0.550351  0.249989  0.222399  1
  O  O163  1  0.449913  0.749197  0.221945  1
  O  O164  1  0.550175  0.749372  0.222366  1
  O  O165  1  0.348495  0.500600  0.252493  1
  O  O166  1  0.651870  0.499509  0.252466  1
  O  O167  1  0.650941  -0.000000  0.243519  1
  O  O168  1  0.349003  -0.000000  0.243431  1
  O  O169  1  0.550767  0.500705  0.250249  1
  O  O170  1  0.449509  0.499492  0.250253  1
  O  O171  1  0.449500  -0.000000  0.245693  1
  O  O172  1  0.550335  -0.000000  0.245618  1
  O  O173  1  0.571558  -0.000000  0.183308  1
  O  O174  1  0.571574  0.499672  0.312411  1
  O  O175  1  0.500373  0.400834  0.231256  1
  O  O176  1  0.499796  0.598941  0.231218  1
  O  O177  1  0.499715  0.099113  0.264720  1
  O  O178  1  0.500429  0.900639  0.264683  1
  O  O179  1  0.498391  0.249405  0.247869  1
  O  O180  1  0.498239  0.750251  0.247854  1
  O  O181  1  0.499905  0.124542  0.183253  1
  O  O182  1  0.850253  0.259751  0.146934  1
  O  O183  1  0.850264  0.740021  0.146941  1
  O  O184  1  0.850273  0.239979  0.090335  1
  O  O185  1  0.850241  0.760224  0.090344  1
  O  O186  1  0.819599  0.250001  0.118625  1
  O  O187  1  0.680599  0.749954  0.118650  1
  O  O188  1  0.819608  0.749963  0.118645  1
  O  O189  1  0.680623  0.249961  0.118626  1
  O  O190  1  0.750077  0.249706  0.139401  1
  O  O191  1  0.750077  0.750238  0.139418  1
  O  O192  1  0.750082  0.749485  0.097880  1
  O  O193  1  0.750079  0.250037  0.097852  1
  O  O194  1  0.810077  0.100089  0.135440  1
  O  O195  1  0.691144  0.600122  0.135471  1
  O  O196  1  0.810085  0.899826  0.135449  1
  O  O197  1  0.691102  0.399752  0.135450  1
  O  O198  1  0.691148  0.899690  0.101806  1
  O  O199  1  0.809977  0.399809  0.101782  1
  O  O200  1  0.691016  0.100119  0.101812  1
  O  O201  1  0.810034  0.600234  0.101804  1
  O  O202  1  0.905625  0.407891  0.142331  1
  O  O203  1  0.904951  0.590798  0.142531  1
  O  O204  1  0.905651  0.091704  0.094892  1
  O  O205  1  0.905515  0.908733  0.094808  1
  O  O206  1  0.914619  0.338258  0.168568  1
  O  O207  1  0.915344  0.663143  0.168532  1
  O  O208  1  0.914688  0.161772  0.068697  1
  O  O209  1  0.915073  0.837248  0.068698  1
  O  O210  1  0.950099  0.248909  0.144620  1
  O  O211  1  0.949737  0.749752  0.144099  1
  O  O212  1  0.950071  0.250869  0.092681  1
  O  O213  1  0.949781  0.749396  0.092955  1
  O  O214  1  0.847893  0.499697  0.123335  1
  O  O215  1  0.848343  -0.000000  0.113946  1
  O  O216  1  0.749192  0.500006  0.118149  1
  O  O217  1  0.749522  -0.000000  0.119012  1
  O  O218  1  0.948813  0.500713  0.120838  1
  O  O219  1  0.949359  -0.000000  0.116407  1
  O  O220  1  0.998195  0.249917  0.118645  1
  O  O221  1  -0.000000  0.400910  0.101940  1
  O  O222  1  -0.000000  0.900863  0.135400  1
  O  O223  1  0.850338  0.759771  0.276132  1
  O  O224  1  0.850195  0.240557  0.276147  1
  O  O225  1  0.850187  0.740047  0.219585  1
  O  O226  1  0.850286  0.259702  0.219578  1
  O  O227  1  0.819453  0.749894  0.247863  1
  O  O228  1  0.680519  0.249935  0.247855  1
  O  O229  1  0.819445  0.250047  0.247859  1
  O  O230  1  0.680557  0.749984  0.247893  1
  O  O231  1  0.750077  0.749933  0.268662  1
  O  O232  1  0.749957  0.249916  0.268639  1
  O  O233  1  0.750028  0.249799  0.227070  1
  O  O234  1  0.749943  0.749950  0.227090  1
  O  O235  1  0.809176  0.600138  0.264699  1
  O  O236  1  0.690905  0.100125  0.264690  1
  O  O237  1  0.808885  0.399847  0.264691  1
  O  O238  1  0.691108  0.899879  0.264701  1
  O  O239  1  0.690268  0.399719  0.230998  1
  O  O240  1  0.809876  0.899727  0.231037  1
  O  O241  1  0.689973  0.600209  0.231023  1
  O  O242  1  0.809983  0.100118  0.231029  1
  O  O243  1  0.905296  0.908838  0.271659  1
  O  O244  1  0.905347  0.091885  0.271583  1
  O  O245  1  0.904821  0.590825  0.224026  1
  O  O246  1  0.905507  0.407981  0.224208  1
  O  O247  1  0.915346  0.836973  0.297707  1
  O  O248  1  0.914519  0.161911  0.297777  1
  O  O249  1  0.915337  0.663191  0.198031  1
  O  O250  1  0.914763  0.338131  0.197993  1
  O  O251  1  0.949807  0.749722  0.273350  1
  O  O252  1  0.949994  0.250837  0.273816  1
  O  O253  1  0.949676  0.749773  0.222473  1
  O  O254  1  0.950134  0.249109  0.221984  1
  O  O255  1  0.848317  -0.000000  0.252495  1
  O  O256  1  0.849173  0.499675  0.243537  1
  O  O257  1  0.749481  -0.000000  0.247471  1
  O  O258  1  0.750648  0.500404  0.247438  1
  O  O259  1  0.949360  0.000000  0.250106  1
  O  O260  1  0.949799  0.500801  0.245537  1
  O  O261  1  0.000000  0.124592  0.312446  1
  O  O262  1  0.928504  -0.000000  0.312450  1
  O  O263  1  0.928453  0.500605  0.183288  1
  O  O264  1  -0.000000  0.375567  0.183263  1
  O  O265  1  0.998446  0.249613  0.247921  1
  O  O266  1  0.000000  0.400812  0.264612  1
  O  O267  1  0.000000  0.900912  0.231129  1
  O  O268  1  0.149841  0.259891  0.405447  1
  O  O269  1  0.149735  0.740196  0.405435  1
  O  O270  1  0.149737  0.239782  0.348858  1
  O  O271  1  0.149825  0.759352  0.348843  1
  O  O272  1  0.319412  0.750103  0.377141  1
  O  O273  1  0.180506  0.250034  0.377150  1
  O  O274  1  0.319452  0.249987  0.377152  1
  O  O275  1  0.180534  0.749916  0.377143  1
  O  O276  1  0.249959  0.750130  0.397926  1
  O  O277  1  0.250040  0.249990  0.397936  1
  O  O278  1  0.249952  0.250450  0.356368  1
  O  O279  1  0.250033  0.750166  0.356361  1
  O  O280  1  0.309260  0.600231  0.393940  1
  O  O281  1  0.190124  0.100239  0.393972  1
  O  O282  1  0.309947  0.399834  0.394004  1
  O  O283  1  0.189964  0.899852  0.393978  1
  O  O284  1  0.190322  0.399765  0.360275  1
  O  O285  1  0.309146  0.899986  0.360316  1
  O  O286  1  0.191138  0.600142  0.360312  1
  O  O287  1  0.308770  0.100296  0.360315  1
  O  O288  1  0.095160  0.408946  0.400977  1
  O  O289  1  0.094686  0.591637  0.400883  1
  O  O290  1  0.094766  0.090834  0.353280  1
  O  O291  1  0.094669  0.907882  0.353430  1
  O  O292  1  0.084712  0.336884  0.427011  1
  O  O293  1  0.085106  0.662193  0.427029  1
  O  O294  1  0.084593  0.163152  0.327265  1
  O  O295  1  0.085435  0.838047  0.327220  1
  O  O296  1  0.050380  0.250067  0.402584  1
  O  O297  1  0.050008  0.750454  0.402892  1
  O  O298  1  0.050328  0.250104  0.351701  1
  O  O299  1  0.050074  0.748927  0.351198  1
  O  O300  1  0.150776  0.500405  0.381478  1
  O  O301  1  0.151708  -0.000000  0.372501  1
  O  O302  1  0.250522  0.000000  0.377541  1
  O  O303  1  0.249345  0.498429  0.377438  1
  O  O304  1  0.049940  0.499540  0.379568  1
  O  O305  1  0.050671  0.000000  0.374875  1
  O  O306  1  0.071622  0.499500  0.441735  1
  O  O307  1  0.000000  0.599140  0.360444  1
  O  O308  1  0.000000  0.099085  0.393883  1
  O  O309  1  0.071567  0.000000  0.312533  1
  O  O310  1  0.001098  0.751145  0.377008  1
  O  O311  1  -0.000000  0.875374  0.312502  1
  O  O312  1  0.149893  0.759406  0.534682  1
  O  O313  1  0.149789  0.240032  0.534642  1
  O  O314  1  0.149844  0.740209  0.478096  1
  O  O315  1  0.149918  0.259800  0.478069  1
  O  O316  1  0.319560  0.250091  0.506386  1
  O  O317  1  0.180611  0.749988  0.506391  1
  O  O318  1  0.319603  0.750136  0.506392  1
  O  O319  1  0.180584  0.250118  0.506361  1
  O  O320  1  0.250004  0.250240  0.527143  1
  O  O321  1  0.250140  0.750411  0.527162  1
  O  O322  1  0.250059  0.750106  0.485621  1
  O  O323  1  0.250144  0.250307  0.485600  1
  O  O324  1  0.308978  0.100245  0.523168  1
  O  O325  1  0.191359  0.600245  0.523213  1
  O  O326  1  0.309426  0.900013  0.523196  1
  O  O327  1  0.190624  0.399879  0.523217  1
  O  O328  1  0.190039  0.899876  0.489547  1
  O  O329  1  0.310279  0.399940  0.489545  1
  O  O330  1  0.190387  0.100295  0.489553  1
  O  O331  1  0.309579  0.600411  0.489567  1
  O  O332  1  0.094773  0.908060  0.530096  1
  O  O333  1  0.094765  0.091049  0.530200  1
  O  O334  1  0.094507  0.592057  0.482708  1
  O  O335  1  0.095510  0.409232  0.482510  1
  O  O336  1  0.085529  0.838237  0.556302  1
  O  O337  1  0.084909  0.162879  0.556259  1
  O  O338  1  0.085472  0.661785  0.456470  1
  O  O339  1  0.084765  0.336986  0.456515  1
  O  O340  1  0.050101  0.749191  0.532345  1
  O  O341  1  0.050301  0.250176  0.531914  1
  O  O342  1  0.049988  0.750979  0.480432  1
  O  O343  1  0.050443  0.250458  0.480955  1
  O  O344  1  0.151702  -0.000000  0.510996  1
  O  O345  1  0.151267  0.500678  0.501984  1
  O  O346  1  0.249737  0.498791  0.506087  1
  O  O347  1  0.250533  -0.000000  0.506022  1
  O  O348  1  0.050662  -0.000000  0.508643  1
  O  O349  1  0.050646  0.498965  0.504076  1
  O  O350  1  0.000000  0.624497  0.441803  1
  O  O351  1  0.000000  0.099178  0.489627  1
  O  O352  1  0.001875  0.750298  0.506401  1
  O  O353  1  0.000000  0.599139  0.523099  1
  O  O354  1  0.350260  0.759512  0.405410  1
  O  O355  1  0.649861  0.759292  0.405457  1
  O  O356  1  0.350293  0.240139  0.405430  1
  O  O357  1  0.649826  0.240393  0.405413  1
  O  O358  1  0.649857  0.740442  0.348850  1
  O  O359  1  0.350323  0.740419  0.348880  1
  O  O360  1  0.649838  0.259594  0.348842  1
  O  O361  1  0.350229  0.259386  0.348864  1
  O  O362  1  0.594804  0.907951  0.400863  1
  O  O363  1  0.404790  0.908855  0.400916  1
  O  O364  1  0.595353  0.090884  0.400972  1
  O  O365  1  0.405508  0.091724  0.400842  1
  O  O366  1  0.404911  0.590913  0.353315  1
  O  O367  1  0.594761  0.591823  0.353428  1
  O  O368  1  0.405428  0.407835  0.353489  1
  O  O369  1  0.595248  0.408920  0.353317  1
  O  O370  1  0.585590  0.838170  0.427111  1
  O  O371  1  0.415358  0.836905  0.426933  1
  O  O372  1  0.584784  0.162872  0.426978  1
  O  O373  1  0.414791  0.162155  0.427038  1
  O  O374  1  0.415414  0.663144  0.327339  1
  O  O375  1  0.585589  0.661645  0.327196  1
  O  O376  1  0.414599  0.338045  0.327252  1
  O  O377  1  0.584954  0.337393  0.327261  1
  O  O378  1  0.550065  0.749211  0.403162  1
  O  O379  1  0.449764  0.750070  0.402533  1
  O  O380  1  0.550399  0.249721  0.402561  1
  O  O381  1  0.450109  0.250679  0.403005  1
  O  O382  1  0.449785  0.749841  0.351770  1
  O  O383  1  0.550072  0.750621  0.351149  1
  O  O384  1  0.450064  0.248924  0.351183  1
  O  O385  1  0.550371  0.250086  0.351599  1
  O  O386  1  0.349051  -0.000000  0.381486  1
  O  O387  1  0.651048  -0.000000  0.381492  1
  O  O388  1  0.650612  0.500174  0.372859  1
  O  O389  1  0.348080  0.500008  0.372525  1
  O  O390  1  0.550481  0.000000  0.379480  1
  O  O391  1  0.449653  -0.000000  0.379422  1
  O  O392  1  0.448912  0.500631  0.374976  1
  O  O393  1  0.549915  0.499416  0.374721  1
  O  O394  1  0.500152  0.624569  0.312548  1
  O  O395  1  0.499892  0.375413  0.312553  1
  O  O396  1  0.428494  0.500362  0.312600  1
  O  O397  1  0.500312  0.900778  0.360393  1
  O  O398  1  0.500123  0.099141  0.360394  1
  O  O399  1  0.500227  0.599180  0.393886  1
  O  O400  1  0.499996  0.400832  0.393879  1
  O  O401  1  0.502207  0.750057  0.377155  1
  O  O402  1  0.498462  0.250330  0.377080  1
  O  O403  1  0.428495  -0.000000  0.441657  1
  O  O404  1  0.500119  0.875421  0.441734  1
  O  O405  1  0.350213  0.259428  0.534690  1
  O  O406  1  0.649723  0.259405  0.534673  1
  O  O407  1  0.350345  0.740456  0.534694  1
  O  O408  1  0.649831  0.740742  0.534698  1
  O  O409  1  0.649816  0.240070  0.478060  1
  O  O410  1  0.350329  0.239832  0.478118  1
  O  O411  1  0.649710  0.760089  0.478118  1
  O  O412  1  0.350224  0.759978  0.478087  1
  O  O413  1  0.594909  0.408373  0.530179  1
  O  O414  1  0.404938  0.408602  0.530208  1
  O  O415  1  0.595607  0.591031  0.530251  1
  O  O416  1  0.405481  0.591684  0.530203  1
  O  O417  1  0.405863  0.091723  0.482719  1
  O  O418  1  0.595080  0.091056  0.482539  1
  O  O419  1  0.405373  0.908590  0.482586  1
  O  O420  1  0.594469  0.908382  0.482723  1
  O  O421  1  0.584711  0.336829  0.556265  1
  O  O422  1  0.414646  0.338055  0.556330  1
  O  O423  1  0.584837  0.662826  0.556245  1
  O  O424  1  0.414802  0.662449  0.556370  1
  O  O425  1  0.414697  0.161621  0.456492  1
  O  O426  1  0.584756  0.163044  0.456487  1
  O  O427  1  0.414731  0.837737  0.456415  1
  O  O428  1  0.584779  0.837686  0.456581  1
  O  O429  1  0.550230  0.249726  0.531882  1
  O  O430  1  0.449945  0.249787  0.532286  1
  O  O431  1  0.550356  0.749373  0.531810  1
  O  O432  1  0.450084  0.750740  0.532319  1
  O  O433  1  0.450102  0.251141  0.480443  1
  O  O434  1  0.550351  0.249989  0.480899  1
  O  O435  1  0.449913  0.749197  0.480445  1
  O  O436  1  0.550175  0.749372  0.480866  1
  O  O437  1  0.348495  0.500600  0.510992  1
  O  O438  1  0.651870  0.499509  0.510966  1
  O  O439  1  0.650941  -0.000000  0.502019  1
  O  O440  1  0.349003  0.000000  0.501931  1
  O  O441  1  0.550767  0.500705  0.508749  1
  O  O442  1  0.449509  0.499492  0.508753  1
  O  O443  1  0.449500  -0.000000  0.504193  1
  O  O444  1  0.550335  -0.000000  0.504118  1
  O  O445  1  0.571558  -0.000000  0.441808  1
  O  O446  1  0.571574  0.499672  0.570911  1
  O  O447  1  0.500373  0.400834  0.489756  1
  O  O448  1  0.499796  0.598941  0.489718  1
  O  O449  1  0.499715  0.099113  0.523220  1
  O  O450  1  0.500429  0.900639  0.523183  1
  O  O451  1  0.498391  0.249405  0.506369  1
  O  O452  1  0.498239  0.750251  0.506354  1
  O  O453  1  0.499905  0.124542  0.441753  1
  O  O454  1  0.850253  0.259751  0.405434  1
  O  O455  1  0.850264  0.740021  0.405441  1
  O  O456  1  0.850273  0.239979  0.348835  1
  O  O457  1  0.850241  0.760224  0.348844  1
  O  O458  1  0.819599  0.250001  0.377125  1
  O  O459  1  0.680599  0.749954  0.377150  1
  O  O460  1  0.819608  0.749963  0.377145  1
  O  O461  1  0.680623  0.249961  0.377126  1
  O  O462  1  0.750077  0.249706  0.397901  1
  O  O463  1  0.750077  0.750238  0.397918  1
  O  O464  1  0.750082  0.749485  0.356380  1
  O  O465  1  0.750079  0.250037  0.356352  1
  O  O466  1  0.810077  0.100089  0.393940  1
  O  O467  1  0.691144  0.600122  0.393971  1
  O  O468  1  0.810085  0.899826  0.393949  1
  O  O469  1  0.691102  0.399752  0.393950  1
  O  O470  1  0.691148  0.899690  0.360306  1
  O  O471  1  0.809977  0.399809  0.360282  1
  O  O472  1  0.691016  0.100119  0.360312  1
  O  O473  1  0.810034  0.600234  0.360304  1
  O  O474  1  0.905625  0.407891  0.400831  1
  O  O475  1  0.904951  0.590798  0.401031  1
  O  O476  1  0.905651  0.091704  0.353392  1
  O  O477  1  0.905515  0.908733  0.353308  1
  O  O478  1  0.914619  0.338258  0.427068  1
  O  O479  1  0.915344  0.663143  0.427032  1
  O  O480  1  0.914688  0.161772  0.327197  1
  O  O481  1  0.915073  0.837248  0.327198  1
  O  O482  1  0.950099  0.248909  0.403120  1
  O  O483  1  0.949737  0.749752  0.402599  1
  O  O484  1  0.950071  0.250869  0.351181  1
  O  O485  1  0.949781  0.749396  0.351455  1
  O  O486  1  0.847893  0.499697  0.381835  1
  O  O487  1  0.848343  -0.000000  0.372446  1
  O  O488  1  0.749192  0.500006  0.376649  1
  O  O489  1  0.749522  0.000000  0.377512  1
  O  O490  1  0.948813  0.500713  0.379338  1
  O  O491  1  0.949359  0.000000  0.374907  1
  O  O492  1  0.998195  0.249917  0.377145  1
  O  O493  1  0.000000  0.400910  0.360440  1
  O  O494  1  -0.000000  0.900863  0.393900  1
  O  O495  1  0.850338  0.759771  0.534632  1
  O  O496  1  0.850195  0.240557  0.534647  1
  O  O497  1  0.850187  0.740047  0.478085  1
  O  O498  1  0.850286  0.259702  0.478078  1
  O  O499  1  0.819453  0.749894  0.506363  1
  O  O500  1  0.680519  0.249935  0.506355  1
  O  O501  1  0.819445  0.250047  0.506359  1
  O  O502  1  0.680557  0.749984  0.506393  1
  O  O503  1  0.750077  0.749933  0.527162  1
  O  O504  1  0.749957  0.249916  0.527139  1
  O  O505  1  0.750028  0.249799  0.485570  1
  O  O506  1  0.749943  0.749950  0.485590  1
  O  O507  1  0.809176  0.600138  0.523199  1
  O  O508  1  0.690905  0.100125  0.523190  1
  O  O509  1  0.808885  0.399847  0.523191  1
  O  O510  1  0.691108  0.899879  0.523201  1
  O  O511  1  0.690268  0.399719  0.489498  1
  O  O512  1  0.809876  0.899727  0.489537  1
  O  O513  1  0.689973  0.600209  0.489523  1
  O  O514  1  0.809983  0.100118  0.489529  1
  O  O515  1  0.905296  0.908838  0.530159  1
  O  O516  1  0.905347  0.091885  0.530083  1
  O  O517  1  0.904821  0.590825  0.482526  1
  O  O518  1  0.905507  0.407981  0.482708  1
  O  O519  1  0.915346  0.836973  0.556207  1
  O  O520  1  0.914519  0.161911  0.556277  1
  O  O521  1  0.915337  0.663191  0.456531  1
  O  O522  1  0.914763  0.338131  0.456493  1
  O  O523  1  0.949807  0.749722  0.531850  1
  O  O524  1  0.949994  0.250837  0.532316  1
  O  O525  1  0.949676  0.749773  0.480973  1
  O  O526  1  0.950134  0.249109  0.480484  1
  O  O527  1  0.848317  -0.000000  0.510995  1
  O  O528  1  0.849173  0.499675  0.502037  1
  O  O529  1  0.749481  0.000000  0.505971  1
  O  O530  1  0.750648  0.500404  0.505938  1
  O  O531  1  0.949360  -0.000000  0.508606  1
  O  O532  1  0.949799  0.500801  0.504037  1
  O  O533  1  0.000000  0.124592  0.570946  1
  O  O534  1  0.928504  -0.000000  0.570950  1
  O  O535  1  0.928453  0.500605  0.441788  1
  O  O536  1  0.000000  0.375567  0.441763  1
  O  O537  1  0.998446  0.249613  0.506421  1
  O  O538  1  -0.000000  0.400812  0.523112  1
  O  O539  1  0.000000  0.900912  0.489629  1
  O  O540  1  0.149841  0.259891  0.663947  1
  O  O541  1  0.149735  0.740196  0.663935  1
  O  O542  1  0.149737  0.239782  0.607358  1
  O  O543  1  0.149825  0.759352  0.607343  1
  O  O544  1  0.319412  0.750103  0.635641  1
  O  O545  1  0.180506  0.250034  0.635650  1
  O  O546  1  0.319452  0.249987  0.635652  1
  O  O547  1  0.180534  0.749916  0.635643  1
  O  O548  1  0.249959  0.750130  0.656426  1
  O  O549  1  0.250040  0.249990  0.656436  1
  O  O550  1  0.249952  0.250450  0.614868  1
  O  O551  1  0.250033  0.750166  0.614861  1
  O  O552  1  0.309260  0.600231  0.652440  1
  O  O553  1  0.190124  0.100239  0.652472  1
  O  O554  1  0.309947  0.399834  0.652504  1
  O  O555  1  0.189964  0.899852  0.652478  1
  O  O556  1  0.190322  0.399765  0.618775  1
  O  O557  1  0.309146  0.899986  0.618816  1
  O  O558  1  0.191138  0.600142  0.618812  1
  O  O559  1  0.308770  0.100296  0.618815  1
  O  O560  1  0.095160  0.408946  0.659477  1
  O  O561  1  0.094686  0.591637  0.659383  1
  O  O562  1  0.094766  0.090834  0.611780  1
  O  O563  1  0.094669  0.907882  0.611930  1
  O  O564  1  0.084712  0.336884  0.685511  1
  O  O565  1  0.085106  0.662193  0.685529  1
  O  O566  1  0.084593  0.163152  0.585765  1
  O  O567  1  0.085435  0.838047  0.585720  1
  O  O568  1  0.050380  0.250067  0.661084  1
  O  O569  1  0.050008  0.750454  0.661392  1
  O  O570  1  0.050328  0.250104  0.610201  1
  O  O571  1  0.050074  0.748927  0.609698  1
  O  O572  1  0.150776  0.500405  0.639978  1
  O  O573  1  0.151708  -0.000000  0.631001  1
  O  O574  1  0.250522  -0.000000  0.636041  1
  O  O575  1  0.249345  0.498429  0.635938  1
  O  O576  1  0.049940  0.499540  0.638068  1
  O  O577  1  0.050671  -0.000000  0.633375  1
  O  O578  1  0.071622  0.499500  0.700235  1
  O  O579  1  0.000000  0.599140  0.618944  1
  O  O580  1  0.000000  0.099085  0.652383  1
  O  O581  1  0.071567  -0.000000  0.571033  1
  O  O582  1  0.001098  0.751145  0.635508  1
  O  O583  1  -0.000000  0.875374  0.571002  1
  O  O584  1  0.149893  0.759406  0.793182  1
  O  O585  1  0.149789  0.240032  0.793142  1
  O  O586  1  0.149844  0.740209  0.736596  1
  O  O587  1  0.149918  0.259800  0.736569  1
  O  O588  1  0.319560  0.250091  0.764886  1
  O  O589  1  0.180611  0.749988  0.764891  1
  O  O590  1  0.319603  0.750136  0.764892  1
  O  O591  1  0.180584  0.250118  0.764861  1
  O  O592  1  0.250004  0.250240  0.785643  1
  O  O593  1  0.250140  0.750411  0.785662  1
  O  O594  1  0.250059  0.750106  0.744121  1
  O  O595  1  0.250144  0.250307  0.744100  1
  O  O596  1  0.308978  0.100245  0.781668  1
  O  O597  1  0.191359  0.600245  0.781713  1
  O  O598  1  0.309426  0.900013  0.781696  1
  O  O599  1  0.190624  0.399879  0.781717  1
  O  O600  1  0.190039  0.899876  0.748047  1
  O  O601  1  0.310279  0.399940  0.748045  1
  O  O602  1  0.190387  0.100295  0.748053  1
  O  O603  1  0.309579  0.600411  0.748067  1
  O  O604  1  0.094773  0.908060  0.788596  1
  O  O605  1  0.094765  0.091049  0.788700  1
  O  O606  1  0.094507  0.592057  0.741208  1
  O  O607  1  0.095510  0.409232  0.741010  1
  O  O608  1  0.085529  0.838237  0.814802  1
  O  O609  1  0.084909  0.162879  0.814759  1
  O  O610  1  0.085472  0.661785  0.714970  1
  O  O611  1  0.084765  0.336986  0.715015  1
  O  O612  1  0.050101  0.749191  0.790845  1
  O  O613  1  0.050301  0.250176  0.790414  1
  O  O614  1  0.049988  0.750979  0.738932  1
  O  O615  1  0.050443  0.250458  0.739455  1
  O  O616  1  0.151702  -0.000000  0.769496  1
  O  O617  1  0.151267  0.500678  0.760484  1
  O  O618  1  0.249737  0.498791  0.764587  1
  O  O619  1  0.250533  -0.000000  0.764522  1
  O  O620  1  0.050662  -0.000000  0.767143  1
  O  O621  1  0.050646  0.498965  0.762576  1
  O  O622  1  0.000000  0.624497  0.700303  1
  O  O623  1  0.000000  0.099178  0.748127  1
  O  O624  1  0.001875  0.750298  0.764901  1
  O  O625  1  0.000000  0.599139  0.781599  1
  O  O626  1  0.350260  0.759512  0.663910  1
  O  O627  1  0.649861  0.759292  0.663957  1
  O  O628  1  0.350293  0.240139  0.663930  1
  O  O629  1  0.649826  0.240393  0.663913  1
  O  O630  1  0.649857  0.740442  0.607350  1
  O  O631  1  0.350323  0.740419  0.607380  1
  O  O632  1  0.649838  0.259594  0.607342  1
  O  O633  1  0.350229  0.259386  0.607364  1
  O  O634  1  0.594804  0.907951  0.659363  1
  O  O635  1  0.404790  0.908855  0.659416  1
  O  O636  1  0.595353  0.090884  0.659472  1
  O  O637  1  0.405508  0.091724  0.659342  1
  O  O638  1  0.404911  0.590913  0.611815  1
  O  O639  1  0.594761  0.591823  0.611928  1
  O  O640  1  0.405428  0.407835  0.611989  1
  O  O641  1  0.595248  0.408920  0.611817  1
  O  O642  1  0.585590  0.838170  0.685611  1
  O  O643  1  0.415358  0.836905  0.685433  1
  O  O644  1  0.584784  0.162872  0.685478  1
  O  O645  1  0.414791  0.162155  0.685538  1
  O  O646  1  0.415414  0.663144  0.585839  1
  O  O647  1  0.585589  0.661645  0.585696  1
  O  O648  1  0.414599  0.338045  0.585752  1
  O  O649  1  0.584954  0.337393  0.585761  1
  O  O650  1  0.550065  0.749211  0.661662  1
  O  O651  1  0.449764  0.750070  0.661033  1
  O  O652  1  0.550399  0.249721  0.661061  1
  O  O653  1  0.450109  0.250679  0.661505  1
  O  O654  1  0.449785  0.749841  0.610270  1
  O  O655  1  0.550072  0.750621  0.609649  1
  O  O656  1  0.450064  0.248924  0.609683  1
  O  O657  1  0.550371  0.250086  0.610099  1
  O  O658  1  0.349051  -0.000000  0.639986  1
  O  O659  1  0.651048  -0.000000  0.639992  1
  O  O660  1  0.650612  0.500174  0.631359  1
  O  O661  1  0.348080  0.500008  0.631025  1
  O  O662  1  0.550481  -0.000000  0.637980  1
  O  O663  1  0.449653  -0.000000  0.637922  1
  O  O664  1  0.448912  0.500631  0.633476  1
  O  O665  1  0.549915  0.499416  0.633221  1
  O  O666  1  0.500152  0.624569  0.571048  1
  O  O667  1  0.499892  0.375413  0.571053  1
  O  O668  1  0.428494  0.500362  0.571100  1
  O  O669  1  0.500312  0.900778  0.618893  1
  O  O670  1  0.500123  0.099141  0.618894  1
  O  O671  1  0.500227  0.599180  0.652386  1
  O  O672  1  0.499996  0.400832  0.652379  1
  O  O673  1  0.502207  0.750057  0.635655  1
  O  O674  1  0.498462  0.250330  0.635580  1
  O  O675  1  0.428495  -0.000000  0.700157  1
  O  O676  1  0.500119  0.875421  0.700234  1
  O  O677  1  0.350213  0.259428  0.793190  1
  O  O678  1  0.649723  0.259405  0.793173  1
  O  O679  1  0.350345  0.740456  0.793194  1
  O  O680  1  0.649831  0.740742  0.793198  1
  O  O681  1  0.649816  0.240070  0.736560  1
  O  O682  1  0.350329  0.239832  0.736618  1
  O  O683  1  0.649710  0.760089  0.736618  1
  O  O684  1  0.350224  0.759978  0.736587  1
  O  O685  1  0.594909  0.408373  0.788679  1
  O  O686  1  0.404938  0.408602  0.788708  1
  O  O687  1  0.595607  0.591031  0.788751  1
  O  O688  1  0.405481  0.591684  0.788703  1
  O  O689  1  0.405863  0.091723  0.741219  1
  O  O690  1  0.595080  0.091056  0.741039  1
  O  O691  1  0.405373  0.908590  0.741086  1
  O  O692  1  0.594469  0.908382  0.741223  1
  O  O693  1  0.584711  0.336829  0.814765  1
  O  O694  1  0.414646  0.338055  0.814830  1
  O  O695  1  0.584837  0.662826  0.814745  1
  O  O696  1  0.414802  0.662449  0.814870  1
  O  O697  1  0.414697  0.161621  0.714992  1
  O  O698  1  0.584756  0.163044  0.714987  1
  O  O699  1  0.414731  0.837737  0.714915  1
  O  O700  1  0.584779  0.837686  0.715081  1
  O  O701  1  0.550230  0.249726  0.790382  1
  O  O702  1  0.449945  0.249787  0.790786  1
  O  O703  1  0.550356  0.749373  0.790310  1
  O  O704  1  0.450084  0.750740  0.790819  1
  O  O705  1  0.450102  0.251141  0.738943  1
  O  O706  1  0.550351  0.249989  0.739399  1
  O  O707  1  0.449913  0.749197  0.738945  1
  O  O708  1  0.550175  0.749372  0.739366  1
  O  O709  1  0.348495  0.500600  0.769492  1
  O  O710  1  0.651870  0.499509  0.769466  1
  O  O711  1  0.650941  0.000000  0.760519  1
  O  O712  1  0.349003  0.000000  0.760431  1
  O  O713  1  0.550767  0.500705  0.767249  1
  O  O714  1  0.449509  0.499492  0.767253  1
  O  O715  1  0.449500  -0.000000  0.762693  1
  O  O716  1  0.550335  -0.000000  0.762618  1
  O  O717  1  0.571558  -0.000000  0.700308  1
  O  O718  1  0.500373  0.400834  0.748256  1
  O  O719  1  0.499796  0.598941  0.748218  1
  O  O720  1  0.499715  0.099113  0.781720  1
  O  O721  1  0.500429  0.900639  0.781683  1
  O  O722  1  0.498391  0.249405  0.764869  1
  O  O723  1  0.498239  0.750251  0.764854  1
  O  O724  1  0.499905  0.124542  0.700253  1
  O  O725  1  0.850253  0.259751  0.663934  1
  O  O726  1  0.850264  0.740021  0.663941  1
  O  O727  1  0.850273  0.239979  0.607335  1
  O  O728  1  0.850241  0.760224  0.607344  1
  O  O729  1  0.819599  0.250001  0.635625  1
  O  O730  1  0.680599  0.749954  0.635650  1
  O  O731  1  0.819608  0.749963  0.635645  1
  O  O732  1  0.680623  0.249961  0.635626  1
  O  O733  1  0.750077  0.249706  0.656401  1
  O  O734  1  0.750077  0.750238  0.656418  1
  O  O735  1  0.750082  0.749485  0.614880  1
  O  O736  1  0.750079  0.250037  0.614852  1
  O  O737  1  0.810077  0.100089  0.652440  1
  O  O738  1  0.691144  0.600122  0.652471  1
  O  O739  1  0.810085  0.899826  0.652449  1
  O  O740  1  0.691102  0.399752  0.652450  1
  O  O741  1  0.691148  0.899690  0.618806  1
  O  O742  1  0.809977  0.399809  0.618782  1
  O  O743  1  0.691016  0.100119  0.618812  1
  O  O744  1  0.810034  0.600234  0.618804  1
  O  O745  1  0.905625  0.407891  0.659331  1
  O  O746  1  0.904951  0.590798  0.659531  1
  O  O747  1  0.905651  0.091704  0.611892  1
  O  O748  1  0.905515  0.908733  0.611808  1
  O  O749  1  0.914619  0.338258  0.685568  1
  O  O750  1  0.915344  0.663143  0.685532  1
  O  O751  1  0.914688  0.161772  0.585697  1
  O  O752  1  0.915073  0.837248  0.585698  1
  O  O753  1  0.950099  0.248909  0.661620  1
  O  O754  1  0.949737  0.749752  0.661099  1
  O  O755  1  0.950071  0.250869  0.609681  1
  O  O756  1  0.949781  0.749396  0.609955  1
  O  O757  1  0.847893  0.499697  0.640335  1
  O  O758  1  0.848343  -0.000000  0.630946  1
  O  O759  1  0.749192  0.500006  0.635149  1
  O  O760  1  0.749522  -0.000000  0.636012  1
  O  O761  1  0.948813  0.500713  0.637838  1
  O  O762  1  0.949359  -0.000000  0.633407  1
  O  O763  1  0.998195  0.249917  0.635645  1
  O  O764  1  0.000000  0.400910  0.618940  1
  O  O765  1  0.000000  0.900863  0.652400  1
  O  O766  1  0.850338  0.759771  0.793132  1
  O  O767  1  0.850195  0.240557  0.793147  1
  O  O768  1  0.850187  0.740047  0.736585  1
  O  O769  1  0.850286  0.259702  0.736578  1
  O  O770  1  0.819453  0.749894  0.764863  1
  O  O771  1  0.680519  0.249935  0.764855  1
  O  O772  1  0.819445  0.250047  0.764859  1
  O  O773  1  0.680557  0.749984  0.764893  1
  O  O774  1  0.750077  0.749933  0.785662  1
  O  O775  1  0.749957  0.249916  0.785639  1
  O  O776  1  0.750028  0.249799  0.744070  1
  O  O777  1  0.749943  0.749950  0.744090  1
  O  O778  1  0.809176  0.600138  0.781699  1
  O  O779  1  0.690905  0.100125  0.781690  1
  O  O780  1  0.808885  0.399847  0.781691  1
  O  O781  1  0.691108  0.899879  0.781701  1
  O  O782  1  0.690268  0.399719  0.747998  1
  O  O783  1  0.809876  0.899727  0.748037  1
  O  O784  1  0.689973  0.600209  0.748023  1
  O  O785  1  0.809983  0.100118  0.748029  1
  O  O786  1  0.905296  0.908838  0.788659  1
  O  O787  1  0.905347  0.091885  0.788583  1
  O  O788  1  0.904821  0.590825  0.741026  1
  O  O789  1  0.905507  0.407981  0.741208  1
  O  O790  1  0.915346  0.836973  0.814707  1
  O  O791  1  0.914519  0.161911  0.814777  1
  O  O792  1  0.915337  0.663191  0.715031  1
  O  O793  1  0.914763  0.338131  0.714993  1
  O  O794  1  0.949807  0.749722  0.790350  1
  O  O795  1  0.949994  0.250837  0.790816  1
  O  O796  1  0.949676  0.749773  0.739473  1
  O  O797  1  0.950134  0.249109  0.738984  1
  O  O798  1  0.848317  0.000000  0.769495  1
  O  O799  1  0.849173  0.499675  0.760537  1
  O  O800  1  0.749481  0.000000  0.764471  1
  O  O801  1  0.750648  0.500404  0.764438  1
  O  O802  1  0.949360  -0.000000  0.767106  1
  O  O803  1  0.949799  0.500801  0.762537  1
  O  O804  1  0.928453  0.500605  0.700288  1
  O  O805  1  0.000000  0.375567  0.700263  1
  O  O806  1  0.998446  0.249613  0.764921  1
  O  O807  1  -0.000000  0.400812  0.781612  1
  O  O808  1  -0.000000  0.900912  0.748129  1
  Si  Si809  1  0.000000  0.712495  0.101401  1
  Si  Si810  1  0.307484  0.714535  0.135708  1
  Si  Si811  1  0.192443  0.214593  0.135724  1
  Si  Si812  1  0.307635  0.285439  0.135735  1
  Si  Si813  1  0.192343  0.785491  0.135721  1
  Si  Si814  1  0.192299  0.285404  0.101562  1
  Si  Si815  1  0.307578  0.785638  0.101567  1
  Si  Si816  1  0.192534  0.714467  0.101571  1
  Si  Si817  1  0.307434  0.214640  0.101577  1
  Si  Si818  1  0.096233  0.310744  0.151122  1
  Si  Si819  1  0.096180  0.689370  0.151162  1
  Si  Si820  1  0.096086  0.189137  0.086163  1
  Si  Si821  1  0.096363  0.810397  0.086076  1
  Si  Si822  1  0.304496  -0.000000  0.110459  1
  Si  Si823  1  0.195251  0.499880  0.110424  1
  Si  Si824  1  0.195234  -0.000000  0.126868  1
  Si  Si825  1  0.304465  0.499908  0.126861  1
  Si  Si826  1  0.098099  0.500123  0.132171  1
  Si  Si827  1  0.098378  0.000000  0.105083  1
  Si  Si828  1  -0.000000  -0.000000  0.126596  1
  Si  Si829  1  0.000000  0.787366  0.135754  1
  Si  Si830  1  0.000000  0.787458  0.230711  1
  Si  Si831  1  0.307524  0.214571  0.264948  1
  Si  Si832  1  0.192654  0.714587  0.264962  1
  Si  Si833  1  0.307736  0.785666  0.264965  1
  Si  Si834  1  0.192413  0.285511  0.264943  1
  Si  Si835  1  0.192440  0.785502  0.230814  1
  Si  Si836  1  0.307778  0.285549  0.230806  1
  Si  Si837  1  0.192579  0.214656  0.230793  1
  Si  Si838  1  0.307641  0.714734  0.230819  1
  Si  Si839  1  0.096456  0.810563  0.280447  1
  Si  Si840  1  0.096215  0.189197  0.280361  1
  Si  Si841  1  0.096301  0.689467  0.215330  1
  Si  Si842  1  0.096363  0.310893  0.215402  1
  Si  Si843  1  0.304856  0.500109  0.239665  1
  Si  Si844  1  0.195314  -0.000000  0.239658  1
  Si  Si845  1  0.195613  0.500037  0.256081  1
  Si  Si846  1  0.304640  0.000000  0.256028  1
  Si  Si847  1  0.098395  -0.000000  0.261424  1
  Si  Si848  1  0.098471  0.500279  0.234349  1
  Si  Si849  1  0.061407  0.611456  0.183257  1
  Si  Si850  1  0.061127  0.387634  0.183261  1
  Si  Si851  1  0.000000  0.499954  0.255839  1
  Si  Si852  1  0.000000  -0.000000  0.239920  1
  Si  Si853  1  0.000000  0.712552  0.265059  1
  Si  Si854  1  0.000000  0.212643  0.230721  1
  Si  Si855  1  0.499729  0.500031  0.126605  1
  Si  Si856  1  0.596470  0.810544  0.151245  1
  Si  Si857  1  0.403828  0.810623  0.151053  1
  Si  Si858  1  0.596316  0.189167  0.151092  1
  Si  Si859  1  0.403841  0.189339  0.151165  1
  Si  Si860  1  0.403881  0.689308  0.086224  1
  Si  Si861  1  0.596453  0.689259  0.086061  1
  Si  Si862  1  0.403704  0.310415  0.086109  1
  Si  Si863  1  0.596351  0.310829  0.086143  1
  Si  Si864  1  0.598374  -0.000000  0.132180  1
  Si  Si865  1  0.401800  -0.000000  0.132138  1
  Si  Si866  1  0.401404  0.499729  0.105113  1
  Si  Si867  1  0.598060  0.500152  0.105117  1
  Si  Si868  1  0.500137  0.000000  0.110664  1
  Si  Si869  1  0.499953  0.287358  0.135777  1
  Si  Si870  1  0.500423  0.787322  0.101473  1
  Si  Si871  1  0.499966  0.212565  0.101424  1
  Si  Si872  1  0.500408  0.712625  0.135828  1
  Si  Si873  1  0.438866  0.887773  0.183180  1
  Si  Si874  1  0.438699  0.111547  0.183248  1
  Si  Si875  1  0.561152  0.112272  0.183240  1
  Si  Si876  1  0.561364  0.611642  0.312472  1
  Si  Si877  1  0.499997  0.000000  0.255944  1
  Si  Si878  1  0.596165  0.310378  0.280381  1
  Si  Si879  1  0.403586  0.310779  0.280465  1
  Si  Si880  1  0.596381  0.689289  0.280373  1
  Si  Si881  1  0.403800  0.689445  0.280487  1
  Si  Si882  1  0.403908  0.189206  0.215359  1
  Si  Si883  1  0.596208  0.189223  0.215380  1
  Si  Si884  1  0.403722  0.810817  0.215300  1
  Si  Si885  1  0.596020  0.810659  0.215447  1
  Si  Si886  1  0.598700  0.499824  0.261459  1
  Si  Si887  1  0.401663  0.500151  0.261486  1
  Si  Si888  1  0.401949  -0.000000  0.234366  1
  Si  Si889  1  0.598154  -0.000000  0.234386  1
  Si  Si890  1  0.500122  0.499939  0.240042  1
  Si  Si891  1  0.499914  0.787184  0.265056  1
  Si  Si892  1  0.561333  0.888408  0.183314  1
  Si  Si893  1  0.499707  0.212598  0.265081  1
  Si  Si894  1  0.499666  0.712363  0.230704  1
  Si  Si895  1  0.499948  0.287441  0.230729  1
  Si  Si896  1  0.000000  0.212512  0.135822  1
  Si  Si897  1  0.000000  0.287483  0.101478  1
  Si  Si898  1  0.807708  0.214445  0.135698  1
  Si  Si899  1  0.692577  0.714481  0.135720  1
  Si  Si900  1  0.807710  0.785476  0.135718  1
  Si  Si901  1  0.692569  0.285399  0.135697  1
  Si  Si902  1  0.692585  0.785323  0.101575  1
  Si  Si903  1  0.807696  0.285426  0.101547  1
  Si  Si904  1  0.692547  0.214474  0.101557  1
  Si  Si905  1  0.807756  0.714554  0.101565  1
  Si  Si906  1  0.903792  0.310487  0.151212  1
  Si  Si907  1  0.903850  0.689155  0.151136  1
  Si  Si908  1  0.903820  0.189274  0.086062  1
  Si  Si909  1  0.903863  0.810760  0.086092  1
  Si  Si910  1  0.804593  0.499979  0.110394  1
  Si  Si911  1  0.695530  0.000000  0.110441  1
  Si  Si912  1  0.695372  0.499967  0.126815  1
  Si  Si913  1  0.804834  0.000000  0.126821  1
  Si  Si914  1  0.901324  0.499724  0.132209  1
  Si  Si915  1  0.901769  -0.000000  0.105072  1
  Si  Si916  1  0.000000  0.500048  0.110721  1
  Si  Si917  1  0.901855  0.499750  0.234357  1
  Si  Si918  1  0.901666  -0.000000  0.261402  1
  Si  Si919  1  0.807618  0.714490  0.264944  1
  Si  Si920  1  0.692409  0.214465  0.264934  1
  Si  Si921  1  0.807475  0.285508  0.264931  1
  Si  Si922  1  0.692557  0.785547  0.264959  1
  Si  Si923  1  0.692451  0.285338  0.230775  1
  Si  Si924  1  0.807543  0.785372  0.230790  1
  Si  Si925  1  0.692343  0.714583  0.230806  1
  Si  Si926  1  0.807634  0.214473  0.230783  1
  Si  Si927  1  0.903925  0.810677  0.280318  1
  Si  Si928  1  0.903636  0.189458  0.280415  1
  Si  Si929  1  0.903804  0.689187  0.215424  1
  Si  Si930  1  0.903841  0.310510  0.215347  1
  Si  Si931  1  0.804760  -0.000000  0.239639  1
  Si  Si932  1  0.695377  0.499940  0.239601  1
  Si  Si933  1  0.695496  -0.000000  0.256048  1
  Si  Si934  1  0.804574  0.500011  0.256049  1
  Si  Si935  1  0.938966  0.887643  0.312459  1
  Si  Si936  1  -0.000000  0.287399  0.265077  1
  Si  Si937  1  0.938662  0.388657  0.183278  1
  Si  Si938  1  0.938638  0.111441  0.312470  1
  Si  Si939  1  0.938953  0.612460  0.183285  1
  Si  Si940  1  0.000000  0.712495  0.359901  1
  Si  Si941  1  0.307484  0.714535  0.394208  1
  Si  Si942  1  0.192443  0.214593  0.394224  1
  Si  Si943  1  0.307635  0.285439  0.394235  1
  Si  Si944  1  0.192343  0.785491  0.394221  1
  Si  Si945  1  0.192299  0.285404  0.360062  1
  Si  Si946  1  0.307578  0.785638  0.360067  1
  Si  Si947  1  0.192534  0.714467  0.360071  1
  Si  Si948  1  0.307434  0.214640  0.360077  1
  Si  Si949  1  0.096233  0.310744  0.409622  1
  Si  Si950  1  0.096180  0.689370  0.409662  1
  Si  Si951  1  0.096086  0.189137  0.344663  1
  Si  Si952  1  0.096363  0.810397  0.344576  1
  Si  Si953  1  0.304496  -0.000000  0.368959  1
  Si  Si954  1  0.195251  0.499880  0.368924  1
  Si  Si955  1  0.195234  -0.000000  0.385368  1
  Si  Si956  1  0.304465  0.499908  0.385361  1
  Si  Si957  1  0.098099  0.500123  0.390671  1
  Si  Si958  1  0.098378  -0.000000  0.363583  1
  Si  Si959  1  0.000000  -0.000000  0.385096  1
  Si  Si960  1  0.061436  0.888553  0.312513  1
  Si  Si961  1  0.000000  0.787366  0.394254  1
  Si  Si962  1  0.061095  0.112383  0.312503  1
  Si  Si963  1  0.000000  0.787458  0.489211  1
  Si  Si964  1  0.307524  0.214571  0.523448  1
  Si  Si965  1  0.192654  0.714587  0.523462  1
  Si  Si966  1  0.307736  0.785666  0.523465  1
  Si  Si967  1  0.192413  0.285511  0.523443  1
  Si  Si968  1  0.192440  0.785502  0.489314  1
  Si  Si969  1  0.307778  0.285549  0.489306  1
  Si  Si970  1  0.192579  0.214656  0.489293  1
  Si  Si971  1  0.307641  0.714734  0.489319  1
  Si  Si972  1  0.096456  0.810563  0.538947  1
  Si  Si973  1  0.096215  0.189197  0.538861  1
  Si  Si974  1  0.096301  0.689467  0.473830  1
  Si  Si975  1  0.096363  0.310893  0.473902  1
  Si  Si976  1  0.304856  0.500109  0.498165  1
  Si  Si977  1  0.195314  -0.000000  0.498158  1
  Si  Si978  1  0.195613  0.500037  0.514581  1
  Si  Si979  1  0.304640  -0.000000  0.514528  1
  Si  Si980  1  0.098395  -0.000000  0.519924  1
  Si  Si981  1  0.098471  0.500279  0.492849  1
  Si  Si982  1  0.061407  0.611456  0.441757  1
  Si  Si983  1  0.061127  0.387634  0.441761  1
  Si  Si984  1  0.000000  0.499954  0.514339  1
  Si  Si985  1  0.000000  -0.000000  0.498420  1
  Si  Si986  1  0.000000  0.712552  0.523559  1
  Si  Si987  1  -0.000000  0.212643  0.489221  1
  Si  Si988  1  0.499729  0.500031  0.385105  1
  Si  Si989  1  0.596470  0.810544  0.409745  1
  Si  Si990  1  0.403828  0.810623  0.409553  1
  Si  Si991  1  0.596316  0.189167  0.409592  1
  Si  Si992  1  0.403841  0.189339  0.409665  1
  Si  Si993  1  0.403881  0.689308  0.344724  1
  Si  Si994  1  0.596453  0.689259  0.344561  1
  Si  Si995  1  0.403704  0.310415  0.344609  1
  Si  Si996  1  0.596351  0.310829  0.344643  1
  Si  Si997  1  0.598374  0.000000  0.390680  1
  Si  Si998  1  0.401800  -0.000000  0.390638  1
  Si  Si999  1  0.401404  0.499729  0.363613  1
  Si  Si1000  1  0.598060  0.500152  0.363617  1
  Si  Si1001  1  0.500137  -0.000000  0.369164  1
  Si  Si1002  1  0.438904  0.612223  0.312593  1
  Si  Si1003  1  0.499953  0.287358  0.394277  1
  Si  Si1004  1  0.500423  0.787322  0.359973  1
  Si  Si1005  1  0.499966  0.212565  0.359924  1
  Si  Si1006  1  0.500408  0.712625  0.394328  1
  Si  Si1007  1  0.438866  0.887773  0.441680  1
  Si  Si1008  1  0.438674  0.388429  0.312547  1
  Si  Si1009  1  0.438699  0.111547  0.441748  1
  Si  Si1010  1  0.561152  0.112272  0.441740  1
  Si  Si1011  1  0.561147  0.387772  0.312504  1
  Si  Si1012  1  0.561364  0.611642  0.570972  1
  Si  Si1013  1  0.499997  -0.000000  0.514444  1
  Si  Si1014  1  0.596165  0.310378  0.538881  1
  Si  Si1015  1  0.403586  0.310779  0.538965  1
  Si  Si1016  1  0.596381  0.689289  0.538872  1
  Si  Si1017  1  0.403800  0.689445  0.538986  1
  Si  Si1018  1  0.403908  0.189206  0.473859  1
  Si  Si1019  1  0.596208  0.189223  0.473880  1
  Si  Si1020  1  0.403722  0.810817  0.473800  1
  Si  Si1021  1  0.596020  0.810659  0.473947  1
  Si  Si1022  1  0.598700  0.499824  0.519959  1
  Si  Si1023  1  0.401663  0.500151  0.519986  1
  Si  Si1024  1  0.401949  0.000000  0.492866  1
  Si  Si1025  1  0.598154  -0.000000  0.492886  1
  Si  Si1026  1  0.500122  0.499939  0.498542  1
  Si  Si1027  1  0.499914  0.787184  0.523556  1
  Si  Si1028  1  0.561333  0.888408  0.441814  1
  Si  Si1029  1  0.499707  0.212598  0.523581  1
  Si  Si1030  1  0.499666  0.712363  0.489204  1
  Si  Si1031  1  0.499948  0.287441  0.489229  1
  Si  Si1032  1  0.000000  0.212512  0.394322  1
  Si  Si1033  1  0.000000  0.287483  0.359978  1
  Si  Si1034  1  0.807708  0.214445  0.394198  1
  Si  Si1035  1  0.692577  0.714481  0.394220  1
  Si  Si1036  1  0.807710  0.785476  0.394218  1
  Si  Si1037  1  0.692569  0.285399  0.394197  1
  Si  Si1038  1  0.692585  0.785323  0.360075  1
  Si  Si1039  1  0.807696  0.285426  0.360047  1
  Si  Si1040  1  0.692547  0.214474  0.360057  1
  Si  Si1041  1  0.807756  0.714554  0.360065  1
  Si  Si1042  1  0.903792  0.310487  0.409712  1
  Si  Si1043  1  0.903850  0.689155  0.409636  1
  Si  Si1044  1  0.903820  0.189274  0.344562  1
  Si  Si1045  1  0.903863  0.810760  0.344592  1
  Si  Si1046  1  0.804593  0.499979  0.368894  1
  Si  Si1047  1  0.695530  -0.000000  0.368941  1
  Si  Si1048  1  0.695372  0.499967  0.385315  1
  Si  Si1049  1  0.804834  -0.000000  0.385321  1
  Si  Si1050  1  0.901324  0.499724  0.390709  1
  Si  Si1051  1  0.901769  -0.000000  0.363572  1
  Si  Si1052  1  0.000000  0.500048  0.369221  1
  Si  Si1053  1  0.901855  0.499750  0.492857  1
  Si  Si1054  1  0.901666  0.000000  0.519902  1
  Si  Si1055  1  0.807618  0.714490  0.523444  1
  Si  Si1056  1  0.692409  0.214465  0.523434  1
  Si  Si1057  1  0.807475  0.285508  0.523431  1
  Si  Si1058  1  0.692557  0.785547  0.523459  1
  Si  Si1059  1  0.692451  0.285338  0.489275  1
  Si  Si1060  1  0.807543  0.785372  0.489290  1
  Si  Si1061  1  0.692343  0.714583  0.489306  1
  Si  Si1062  1  0.807634  0.214473  0.489283  1
  Si  Si1063  1  0.903925  0.810677  0.538818  1
  Si  Si1064  1  0.903636  0.189458  0.538915  1
  Si  Si1065  1  0.903804  0.689187  0.473924  1
  Si  Si1066  1  0.903841  0.310510  0.473847  1
  Si  Si1067  1  0.804760  -0.000000  0.498139  1
  Si  Si1068  1  0.695377  0.499940  0.498101  1
  Si  Si1069  1  0.695496  -0.000000  0.514548  1
  Si  Si1070  1  0.804574  0.500011  0.514549  1
  Si  Si1071  1  0.938966  0.887643  0.570959  1
  Si  Si1072  1  -0.000000  0.287399  0.523577  1
  Si  Si1073  1  0.938662  0.388657  0.441778  1
  Si  Si1074  1  0.938638  0.111441  0.570970  1
  Si  Si1075  1  0.938953  0.612460  0.441785  1
  Si  Si1076  1  0.000000  0.712495  0.618401  1
  Si  Si1077  1  0.307484  0.714535  0.652708  1
  Si  Si1078  1  0.192443  0.214593  0.652724  1
  Si  Si1079  1  0.307635  0.285439  0.652735  1
  Si  Si1080  1  0.192343  0.785491  0.652721  1
  Si  Si1081  1  0.192299  0.285404  0.618562  1
  Si  Si1082  1  0.307578  0.785638  0.618566  1
  Si  Si1083  1  0.192534  0.714467  0.618571  1
  Si  Si1084  1  0.307434  0.214640  0.618577  1
  Si  Si1085  1  0.096233  0.310744  0.668122  1
  Si  Si1086  1  0.096180  0.689370  0.668162  1
  Si  Si1087  1  0.096086  0.189137  0.603163  1
  Si  Si1088  1  0.096363  0.810397  0.603076  1
  Si  Si1089  1  0.304496  -0.000000  0.627459  1
  Si  Si1090  1  0.195251  0.499880  0.627424  1
  Si  Si1091  1  0.195234  -0.000000  0.643868  1
  Si  Si1092  1  0.304465  0.499908  0.643861  1
  Si  Si1093  1  0.098099  0.500123  0.649171  1
  Si  Si1094  1  0.098378  -0.000000  0.622083  1
  Si  Si1095  1  -0.000000  -0.000000  0.643595  1
  Si  Si1096  1  0.061436  0.888553  0.571013  1
  Si  Si1097  1  -0.000000  0.787366  0.652754  1
  Si  Si1098  1  0.061095  0.112383  0.571003  1
  Si  Si1099  1  0.000000  0.787458  0.747711  1
  Si  Si1100  1  0.307524  0.214571  0.781948  1
  Si  Si1101  1  0.192654  0.714587  0.781961  1
  Si  Si1102  1  0.307736  0.785666  0.781965  1
  Si  Si1103  1  0.192413  0.285511  0.781943  1
  Si  Si1104  1  0.192440  0.785502  0.747814  1
  Si  Si1105  1  0.307778  0.285549  0.747806  1
  Si  Si1106  1  0.192579  0.214656  0.747793  1
  Si  Si1107  1  0.307641  0.714734  0.747819  1
  Si  Si1108  1  0.096456  0.810563  0.797447  1
  Si  Si1109  1  0.096215  0.189197  0.797361  1
  Si  Si1110  1  0.096301  0.689467  0.732330  1
  Si  Si1111  1  0.096363  0.310893  0.732402  1
  Si  Si1112  1  0.304856  0.500109  0.756665  1
  Si  Si1113  1  0.195314  -0.000000  0.756658  1
  Si  Si1114  1  0.195613  0.500037  0.773081  1
  Si  Si1115  1  0.304640  0.000000  0.773028  1
  Si  Si1116  1  0.098395  -0.000000  0.778424  1
  Si  Si1117  1  0.098471  0.500279  0.751349  1
  Si  Si1118  1  0.061407  0.611456  0.700257  1
  Si  Si1119  1  0.061127  0.387634  0.700261  1
  Si  Si1120  1  0.000000  0.499954  0.772839  1
  Si  Si1121  1  -0.000000  -0.000000  0.756920  1
  Si  Si1122  1  0.000000  0.712552  0.782059  1
  Si  Si1123  1  0.000000  0.212643  0.747721  1
  Si  Si1124  1  0.499729  0.500031  0.643605  1
  Si  Si1125  1  0.596470  0.810544  0.668245  1
  Si  Si1126  1  0.403828  0.810623  0.668053  1
  Si  Si1127  1  0.596316  0.189167  0.668092  1
  Si  Si1128  1  0.403841  0.189339  0.668165  1
  Si  Si1129  1  0.403881  0.689308  0.603224  1
  Si  Si1130  1  0.596453  0.689259  0.603061  1
  Si  Si1131  1  0.403704  0.310415  0.603109  1
  Si  Si1132  1  0.596351  0.310829  0.603143  1
  Si  Si1133  1  0.598374  -0.000000  0.649180  1
  Si  Si1134  1  0.401800  0.000000  0.649138  1
  Si  Si1135  1  0.401404  0.499729  0.622113  1
  Si  Si1136  1  0.598060  0.500152  0.622117  1
  Si  Si1137  1  0.500137  -0.000000  0.627664  1
  Si  Si1138  1  0.438904  0.612223  0.571093  1
  Si  Si1139  1  0.499953  0.287358  0.652777  1
  Si  Si1140  1  0.500423  0.787322  0.618473  1
  Si  Si1141  1  0.499966  0.212565  0.618424  1
  Si  Si1142  1  0.500408  0.712625  0.652828  1
  Si  Si1143  1  0.438866  0.887773  0.700180  1
  Si  Si1144  1  0.438674  0.388429  0.571047  1
  Si  Si1145  1  0.438699  0.111547  0.700248  1
  Si  Si1146  1  0.561152  0.112272  0.700240  1
  Si  Si1147  1  0.561147  0.387772  0.571004  1
  Si  Si1148  1  0.499997  -0.000000  0.772944  1
  Si  Si1149  1  0.596165  0.310378  0.797381  1
  Si  Si1150  1  0.403586  0.310779  0.797465  1
  Si  Si1151  1  0.596381  0.689289  0.797372  1
  Si  Si1152  1  0.403800  0.689445  0.797486  1
  Si  Si1153  1  0.403908  0.189206  0.732359  1
  Si  Si1154  1  0.596208  0.189223  0.732380  1
  Si  Si1155  1  0.403722  0.810817  0.732300  1
  Si  Si1156  1  0.596020  0.810659  0.732447  1
  Si  Si1157  1  0.598700  0.499824  0.778459  1
  Si  Si1158  1  0.401663  0.500151  0.778486  1
  Si  Si1159  1  0.401949  0.000000  0.751366  1
  Si  Si1160  1  0.598154  -0.000000  0.751386  1
  Si  Si1161  1  0.500122  0.499939  0.757042  1
  Si  Si1162  1  0.499914  0.787184  0.782056  1
  Si  Si1163  1  0.561333  0.888408  0.700314  1
  Si  Si1164  1  0.499707  0.212598  0.782081  1
  Si  Si1165  1  0.499666  0.712363  0.747704  1
  Si  Si1166  1  0.499948  0.287441  0.747729  1
  Si  Si1167  1  0.000000  0.212512  0.652822  1
  Si  Si1168  1  0.000000  0.287483  0.618478  1
  Si  Si1169  1  0.807708  0.214445  0.652698  1
  Si  Si1170  1  0.692577  0.714481  0.652720  1
  Si  Si1171  1  0.807710  0.785476  0.652718  1
  Si  Si1172  1  0.692569  0.285399  0.652697  1
  Si  Si1173  1  0.692585  0.785323  0.618575  1
  Si  Si1174  1  0.807696  0.285426  0.618547  1
  Si  Si1175  1  0.692547  0.214474  0.618557  1
  Si  Si1176  1  0.807756  0.714554  0.618565  1
  Si  Si1177  1  0.903792  0.310487  0.668212  1
  Si  Si1178  1  0.903850  0.689155  0.668136  1
  Si  Si1179  1  0.903820  0.189274  0.603062  1
  Si  Si1180  1  0.903863  0.810760  0.603092  1
  Si  Si1181  1  0.804593  0.499979  0.627393  1
  Si  Si1182  1  0.695530  -0.000000  0.627441  1
  Si  Si1183  1  0.695372  0.499967  0.643815  1
  Si  Si1184  1  0.804834  -0.000000  0.643821  1
  Si  Si1185  1  0.901324  0.499724  0.649209  1
  Si  Si1186  1  0.901769  -0.000000  0.622072  1
  Si  Si1187  1  0.000000  0.500048  0.627721  1
  Si  Si1188  1  0.901855  0.499750  0.751357  1
  Si  Si1189  1  0.901666  0.000000  0.778402  1
  Si  Si1190  1  0.807618  0.714490  0.781944  1
  Si  Si1191  1  0.692409  0.214465  0.781934  1
  Si  Si1192  1  0.807475  0.285508  0.781931  1
  Si  Si1193  1  0.692557  0.785547  0.781959  1
  Si  Si1194  1  0.692451  0.285338  0.747775  1
  Si  Si1195  1  0.807543  0.785372  0.747790  1
  Si  Si1196  1  0.692343  0.714583  0.747806  1
  Si  Si1197  1  0.807634  0.214473  0.747783  1
  Si  Si1198  1  0.903925  0.810677  0.797318  1
  Si  Si1199  1  0.903636  0.189458  0.797415  1
  Si  Si1200  1  0.903804  0.689187  0.732424  1
  Si  Si1201  1  0.903841  0.310510  0.732347  1
  Si  Si1202  1  0.804760  0.000000  0.756639  1
  Si  Si1203  1  0.695377  0.499940  0.756601  1
  Si  Si1204  1  0.695496  -0.000000  0.773048  1
  Si  Si1205  1  0.804574  0.500011  0.773049  1
  Si  Si1206  1  -0.000000  0.287399  0.782077  1
  Si  Si1207  1  0.938662  0.388657  0.700278  1
  Si  Si1208  1  0.938953  0.612460  0.700285  1
  H  H1209  1  0.084593  0.163152  0.058286  1
  H  H1210  1  0.085435  0.838047  0.058241  1
  H  H1211  1  0.415414  0.663144  0.058360  1
  H  H1212  1  0.585589  0.661645  0.058217  1
  H  H1213  1  0.414599  0.338045  0.058273  1
  H  H1214  1  0.584954  0.337393  0.058281  1
  H  H1215  1  0.914688  0.161772  0.058218  1
  H  H1216  1  0.915073  0.837248  0.058219  1
  H  H1217  1  0.085529  0.838237  0.825281  1
  H  H1218  1  0.084909  0.162879  0.825238  1
  H  H1219  1  0.584711  0.336829  0.825244  1
  H  H1220  1  0.414646  0.338055  0.825309  1
  H  H1221  1  0.584837  0.662826  0.825224  1
  H  H1222  1  0.414802  0.662449  0.825349  1
  H  H1223  1  0.915346  0.836973  0.825186  1
  H  H1224  1  0.914519  0.161911  0.825256  1
