# generated using pymatgen
data_Si24H2O49
_symmetry_space_group_name_H-M   'P 1'
_cell_length_a   8.31855047
_cell_length_b   38.25171453
_cell_length_c   67.18432209
_cell_angle_alpha   90.00000000
_cell_angle_beta   90.00000000
_cell_angle_gamma   90.00000000
_symmetry_Int_Tables_number   1
_chemical_formula_structural   Si24H2O49
_chemical_formula_sum   'Si288 H24 O588'
_cell_volume   21377.9718684
_cell_formula_units_Z   12
loop_
 _symmetry_equiv_pos_site_id
 _symmetry_equiv_pos_as_xyz
  1  'x, y, z'
loop_
 _atom_site_type_symbol
 _atom_site_label
 _atom_site_symmetry_multiplicity
 _atom_site_fract_x
 _atom_site_fract_y
 _atom_site_fract_z
 _atom_site_occupancy
  O  O1  1  0.751876  0.941704  0.326139  1
  O  O2  1  0.754178  0.441290  0.193200  1
  O  O3  1  0.755256  0.558272  0.160067  1
  O  O4  1  0.247917  0.941706  0.326140  1
  O  O5  1  0.244538  0.558270  0.160066  1
  O  O6  1  0.245615  0.441291  0.193201  1
  O  O7  1  0.256649  0.941111  0.159966  1
  O  O8  1  0.256663  0.058842  0.193252  1
  O  O9  1  0.255008  0.558382  0.326105  1
  O  O10  1  0.743136  0.058839  0.193251  1
  O  O11  1  0.743150  0.941112  0.159966  1
  O  O12  1  0.744793  0.558383  0.326104  1
  O  O13  1  0.737358  0.984164  0.295806  1
  O  O14  1  0.746278  0.484361  0.223230  1
  O  O15  1  0.736800  0.515585  0.129814  1
  O  O16  1  0.262441  0.984164  0.295807  1
  O  O17  1  0.262989  0.515579  0.129815  1
  O  O18  1  0.253514  0.484367  0.223229  1
  O  O19  1  0.244745  0.984441  0.130066  1
  O  O20  1  0.244740  0.015519  0.223158  1
  O  O21  1  0.237051  0.515642  0.295876  1
  O  O22  1  0.755046  0.015515  0.223157  1
  O  O23  1  0.755041  0.984445  0.130066  1
  O  O24  1  0.762742  0.515642  0.295875  1
  O  O25  1  0.755492  0.918793  0.290708  1
  O  O26  1  0.745195  0.418707  0.228666  1
  O  O27  1  0.753706  0.581022  0.124590  1
  O  O28  1  0.244309  0.918794  0.290711  1
  O  O29  1  0.246106  0.581015  0.124587  1
  O  O30  1  0.254621  0.418718  0.228672  1
  O  O31  1  0.245012  0.918754  0.124458  1
  O  O32  1  0.244959  0.081208  0.228753  1
  O  O33  1  0.253544  0.581086  0.290637  1
  O  O34  1  0.754845  0.081203  0.228755  1
  O  O35  1  0.754781  0.918756  0.124456  1
  O  O36  1  0.746236  0.581087  0.290636  1
  O  O37  1  0.000000  0.951847  0.303919  1
  O  O38  1  0.000000  0.448074  0.216260  1
  O  O39  1  0.000000  0.548128  0.137268  1
  O  O40  1  0.499901  0.948474  0.136566  1
  O  O41  1  0.499902  0.051488  0.216657  1
  O  O42  1  0.499895  0.548277  0.303342  1
  O  O43  1  0.738510  0.857759  0.303083  1
  O  O44  1  0.740320  0.357354  0.216419  1
  O  O45  1  0.738054  0.642231  0.136901  1
  O  O46  1  0.261285  0.857759  0.303083  1
  O  O47  1  0.261717  0.642224  0.136898  1
  O  O48  1  0.259426  0.357369  0.216426  1
  O  O49  1  0.239286  0.857259  0.136628  1
  O  O50  1  0.239339  0.142710  0.216588  1
  O  O51  1  0.238149  0.642321  0.302931  1
  O  O52  1  0.760441  0.142700  0.216590  1
  O  O53  1  0.760503  0.857262  0.136628  1
  O  O54  1  0.761636  0.642323  0.302931  1
  O  O55  1  0.742471  0.880107  0.337932  1
  O  O56  1  0.740481  0.379809  0.181520  1
  O  O57  1  0.742871  0.619939  0.171737  1
  O  O58  1  0.257328  0.880107  0.337932  1
  O  O59  1  0.256908  0.619939  0.171735  1
  O  O60  1  0.259284  0.379810  0.181523  1
  O  O61  1  0.241597  0.879557  0.171544  1
  O  O62  1  0.241579  0.120396  0.181677  1
  O  O63  1  0.242617  0.620076  0.337780  1
  O  O64  1  0.758195  0.120391  0.181678  1
  O  O65  1  0.758190  0.879559  0.171544  1
  O  O66  1  0.757183  0.620076  0.337779  1
  O  O67  1  0.759394  0.814948  0.333388  1
  O  O68  1  0.759666  0.314770  0.185965  1
  O  O69  1  0.759963  0.685092  0.167249  1
  O  O70  1  0.240401  0.814948  0.333388  1
  O  O71  1  0.239855  0.685092  0.167243  1
  O  O72  1  0.240184  0.314772  0.185981  1
  O  O73  1  0.260532  0.814512  0.167088  1
  O  O74  1  0.260352  0.185426  0.186112  1
  O  O75  1  0.260694  0.685263  0.333260  1
  O  O76  1  0.739489  0.185420  0.186121  1
  O  O77  1  0.739280  0.814513  0.167085  1
  O  O78  1  0.739098  0.685263  0.333260  1
  O  O79  1  -0.000000  0.854174  0.323589  1
  O  O80  1  0.000000  0.354185  0.195530  1
  O  O81  1  0.000000  0.645875  0.157275  1
  O  O82  1  0.499896  0.853929  0.157247  1
  O  O83  1  0.499891  0.146055  0.195953  1
  O  O84  1  0.499897  0.645857  0.323317  1
  O  O85  1  0.764928  0.000000  0.259581  1
  O  O86  1  0.764964  0.000000  0.093644  1
  O  O87  1  0.735345  0.499734  0.259694  1
  O  O88  1  0.764579  0.499635  0.093640  1
  O  O89  1  0.234833  0.000000  0.093644  1
  O  O90  1  0.234865  0.000000  0.259581  1
  O  O91  1  0.235226  0.499636  0.093639  1
  O  O92  1  0.264454  0.499735  0.259695  1
  O  O93  1  0.000000  0.983818  0.237435  1
  O  O94  1  0.000000  0.016146  0.115794  1
  O  O95  1  0.000000  0.488438  0.277128  1
  O  O96  1  0.499901  0.010986  0.276952  1
  O  O97  1  0.499899  0.488308  0.111047  1
  O  O98  1  0.499900  0.515406  0.237534  1
  O  O99  1  0.736748  0.950928  0.233392  1
  O  O100  1  0.736737  0.049036  0.119829  1
  O  O101  1  0.756129  0.450861  0.285796  1
  O  O102  1  0.263075  0.049028  0.119832  1
  O  O103  1  0.263053  0.950933  0.233390  1
  O  O104  1  0.243673  0.450861  0.285795  1
  O  O105  1  0.256982  0.048841  0.285636  1
  O  O106  1  0.256045  0.450795  0.119761  1
  O  O107  1  0.238227  0.548860  0.233578  1
  O  O108  1  0.742813  0.048844  0.285635  1
  O  O109  1  0.761571  0.548857  0.233577  1
  O  O110  1  0.743746  0.450798  0.119764  1
  O  O111  1  0.761112  0.868201  0.265397  1
  O  O112  1  0.761263  0.131758  0.087819  1
  O  O113  1  0.768233  0.368476  0.254045  1
  O  O114  1  0.763001  0.631577  0.099292  1
  O  O115  1  0.238481  0.131737  0.087818  1
  O  O116  1  0.238651  0.868209  0.265398  1
  O  O117  1  0.236807  0.631577  0.099290  1
  O  O118  1  0.231589  0.368478  0.254050  1
  O  O119  1  0.269167  0.868613  0.099062  1
  O  O120  1  0.269233  0.131324  0.254153  1
  O  O121  1  0.268334  0.368476  0.088030  1
  O  O122  1  0.263016  0.631571  0.265314  1
  O  O123  1  0.730577  0.131330  0.254154  1
  O  O124  1  0.730634  0.868607  0.099062  1
  O  O125  1  0.736778  0.631570  0.265312  1
  O  O126  1  0.731452  0.368483  0.088030  1
  O  O127  1  0.499896  0.884292  0.283654  1
  O  O128  1  0.499905  0.381322  0.236568  1
  O  O129  1  0.499899  0.615988  0.117251  1
  O  O130  1  0.000000  0.881399  0.116351  1
  O  O131  1  0.000000  0.118583  0.236863  1
  O  O132  1  -0.000000  0.616098  0.283294  1
  O  O133  1  0.748655  0.704063  0.203746  1
  O  O134  1  0.749494  0.295833  0.149463  1
  O  O135  1  0.750500  0.204146  0.315404  1
  O  O136  1  0.250295  0.295845  0.149471  1
  O  O137  1  0.251141  0.704061  0.203742  1
  O  O138  1  0.249304  0.204143  0.315403  1
  O  O139  1  0.247515  0.295681  0.315497  1
  O  O140  1  0.247350  0.204115  0.149522  1
  O  O141  1  0.246827  0.795822  0.203667  1
  O  O142  1  0.752289  0.295680  0.315497  1
  O  O143  1  0.752947  0.795821  0.203663  1
  O  O144  1  0.752405  0.204114  0.149530  1
  O  O145  1  0.748884  0.749988  0.230604  1
  O  O146  1  0.749769  0.249960  0.122591  1
  O  O147  1  0.748472  0.249979  0.288512  1
  O  O148  1  0.250060  0.249961  0.122591  1
  O  O149  1  0.250934  0.749986  0.230603  1
  O  O150  1  0.251337  0.249975  0.288510  1
  O  O151  1  0.758566  0.680919  0.238829  1
  O  O152  1  0.755363  0.319018  0.114413  1
  O  O153  1  0.755346  0.180877  0.280425  1
  O  O154  1  0.244495  0.319014  0.114416  1
  O  O155  1  0.241251  0.680919  0.238827  1
  O  O156  1  0.244433  0.180870  0.280423  1
  O  O157  1  0.255643  0.319051  0.280473  1
  O  O158  1  0.258579  0.180937  0.114415  1
  O  O159  1  0.258331  0.819019  0.238784  1
  O  O160  1  0.744136  0.319054  0.280472  1
  O  O161  1  0.741471  0.819015  0.238781  1
  O  O162  1  0.741251  0.180950  0.114421  1
  O  O163  1  0.000000  0.713594  0.223875  1
  O  O164  1  0.000000  0.286903  0.129066  1
  O  O165  1  0.000000  0.213399  0.294826  1
  O  O166  1  0.499898  0.287292  0.295404  1
  O  O167  1  0.499893  0.213286  0.129590  1
  O  O168  1  0.499895  0.786926  0.223520  1
  O  O169  1  0.749424  0.749853  0.177482  1
  O  O170  1  0.749524  0.250049  0.175710  1
  O  O171  1  0.749294  0.249802  0.341700  1
  O  O172  1  0.250261  0.250054  0.175707  1
  O  O173  1  0.250374  0.749854  0.177482  1
  O  O174  1  0.250509  0.249804  0.341698  1
  O  O175  1  0.000000  0.789239  0.181882  1
  O  O176  1  -0.000000  0.210648  0.171210  1
  O  O177  1  0.000000  0.289144  0.337178  1
  O  O178  1  0.499896  0.210334  0.336542  1
  O  O179  1  0.499898  0.289531  0.170788  1
  O  O180  1  0.499899  0.710315  0.182288  1
  O  O181  1  0.759670  0.884319  0.229002  1
  O  O182  1  0.759713  0.115651  0.124217  1
  O  O183  1  0.748430  0.384386  0.290427  1
  O  O184  1  0.240045  0.115639  0.124218  1
  O  O185  1  0.240100  0.884322  0.229000  1
  O  O186  1  0.251364  0.384385  0.290430  1
  O  O187  1  0.247616  0.115327  0.290487  1
  O  O188  1  0.248130  0.384343  0.124432  1
  O  O189  1  0.258507  0.615495  0.228923  1
  O  O190  1  0.752193  0.115332  0.290487  1
  O  O191  1  0.741287  0.615494  0.228922  1
  O  O192  1  0.751657  0.384346  0.124433  1
  O  O193  1  0.000000  0.853062  0.243480  1
  O  O194  1  0.000000  0.146956  0.109755  1
  O  O195  1  -0.000000  0.355078  0.277627  1
  O  O196  1  0.499899  0.144639  0.277923  1
  O  O197  1  0.499906  0.355156  0.111641  1
  O  O198  1  0.499901  0.646759  0.243069  1
  O  O199  1  0.744158  0.925260  0.198432  1
  O  O200  1  0.744131  0.074706  0.154785  1
  O  O201  1  0.739432  0.425583  0.320796  1
  O  O202  1  0.255683  0.074704  0.154788  1
  O  O203  1  0.255646  0.925262  0.198431  1
  O  O204  1  0.260368  0.425583  0.320796  1
  O  O205  1  0.239262  0.073785  0.320714  1
  O  O206  1  0.239664  0.425667  0.154792  1
  O  O207  1  0.244118  0.574166  0.198527  1
  O  O208  1  0.760529  0.073786  0.320713  1
  O  O209  1  0.755670  0.574164  0.198527  1
  O  O210  1  0.760126  0.425669  0.154793  1
  O  O211  1  0.499896  0.914888  0.220567  1
  O  O212  1  0.499893  0.085092  0.132646  1
  O  O213  1  0.499902  0.420611  0.297096  1
  O  O214  1  0.000000  0.078702  0.296971  1
  O  O215  1  0.000000  0.420634  0.131143  1
  O  O216  1  0.000000  0.584343  0.220702  1
  O  O217  1  0.000000  0.919591  0.177138  1
  O  O218  1  0.000000  0.080361  0.176078  1
  O  O219  1  -0.000000  0.419748  0.341153  1
  O  O220  1  0.499900  0.080352  0.340904  1
  O  O221  1  0.499886  0.419913  0.175201  1
  O  O222  1  0.499890  0.580262  0.177317  1
  O  O223  1  0.751876  0.941704  0.658162  1
  O  O224  1  0.751969  0.058245  0.359103  1
  O  O225  1  0.754178  0.441290  0.525223  1
  O  O226  1  0.755256  0.558272  0.492089  1
  O  O227  1  0.247825  0.058243  0.359102  1
  O  O228  1  0.247917  0.941706  0.658163  1
  O  O229  1  0.244538  0.558270  0.492089  1
  O  O230  1  0.245615  0.441291  0.525223  1
  O  O231  1  0.256649  0.941111  0.491989  1
  O  O232  1  0.256663  0.058842  0.525274  1
  O  O233  1  0.253989  0.441153  0.359180  1
  O  O234  1  0.255008  0.558382  0.658128  1
  O  O235  1  0.743136  0.058839  0.525274  1
  O  O236  1  0.743150  0.941112  0.491989  1
  O  O237  1  0.744793  0.558383  0.658127  1
  O  O238  1  0.745810  0.441153  0.359180  1
  O  O239  1  0.737358  0.984164  0.627829  1
  O  O240  1  0.737398  0.015801  0.389441  1
  O  O241  1  0.746278  0.484361  0.555252  1
  O  O242  1  0.736800  0.515585  0.461837  1
  O  O243  1  0.262399  0.015799  0.389440  1
  O  O244  1  0.262441  0.984164  0.627829  1
  O  O245  1  0.262989  0.515579  0.461838  1
  O  O246  1  0.253514  0.484367  0.555251  1
  O  O247  1  0.244745  0.984441  0.462089  1
  O  O248  1  0.244740  0.015519  0.555180  1
  O  O249  1  0.246786  0.484290  0.389194  1
  O  O250  1  0.237051  0.515642  0.627898  1
  O  O251  1  0.755046  0.015515  0.555180  1
  O  O252  1  0.755041  0.984445  0.462089  1
  O  O253  1  0.762742  0.515642  0.627897  1
  O  O254  1  0.753006  0.484290  0.389195  1
  O  O255  1  0.755492  0.918793  0.622731  1
  O  O256  1  0.755330  0.081174  0.394532  1
  O  O257  1  0.745195  0.418707  0.560688  1
  O  O258  1  0.753706  0.581022  0.456613  1
  O  O259  1  0.244485  0.081171  0.394527  1
  O  O260  1  0.244309  0.918794  0.622734  1
  O  O261  1  0.246106  0.581015  0.456610  1
  O  O262  1  0.254621  0.418718  0.560694  1
  O  O263  1  0.245012  0.918754  0.456481  1
  O  O264  1  0.244959  0.081208  0.560775  1
  O  O265  1  0.244937  0.418628  0.394643  1
  O  O266  1  0.253544  0.581086  0.622659  1
  O  O267  1  0.754845  0.081203  0.560778  1
  O  O268  1  0.754781  0.918756  0.456479  1
  O  O269  1  0.746236  0.581087  0.622658  1
  O  O270  1  0.754850  0.418629  0.394642  1
  O  O271  1  -0.000000  0.951847  0.635942  1
  O  O272  1  0.000000  0.048149  0.381350  1
  O  O273  1  0.000000  0.448074  0.548283  1
  O  O274  1  0.000000  0.548128  0.469291  1
  O  O275  1  0.499901  0.948474  0.468589  1
  O  O276  1  0.499902  0.051488  0.548680  1
  O  O277  1  0.499895  0.447836  0.382207  1
  O  O278  1  0.499895  0.548277  0.635364  1
  O  O279  1  0.738510  0.857759  0.635105  1
  O  O280  1  0.738598  0.142206  0.382156  1
  O  O281  1  0.740320  0.357354  0.548442  1
  O  O282  1  0.738054  0.642231  0.468924  1
  O  O283  1  0.261201  0.142207  0.382156  1
  O  O284  1  0.261285  0.857759  0.635105  1
  O  O285  1  0.261717  0.642224  0.468921  1
  O  O286  1  0.259426  0.357369  0.548449  1
  O  O287  1  0.239286  0.857259  0.468651  1
  O  O288  1  0.239339  0.142710  0.548611  1
  O  O289  1  0.240333  0.357242  0.382423  1
  O  O290  1  0.238149  0.642321  0.634954  1
  O  O291  1  0.760441  0.142700  0.548613  1
  O  O292  1  0.760503  0.857262  0.468650  1
  O  O293  1  0.761636  0.642323  0.634953  1
  O  O294  1  0.759459  0.357240  0.382423  1
  O  O295  1  0.742471  0.880107  0.669955  1
  O  O296  1  0.742424  0.119829  0.347311  1
  O  O297  1  0.740481  0.379809  0.513542  1
  O  O298  1  0.742871  0.619939  0.503759  1
  O  O299  1  0.257380  0.119832  0.347311  1
  O  O300  1  0.257328  0.880107  0.669955  1
  O  O301  1  0.256908  0.619939  0.503757  1
  O  O302  1  0.259284  0.379810  0.513545  1
  O  O303  1  0.241597  0.879557  0.503566  1
  O  O304  1  0.241579  0.120396  0.513700  1
  O  O305  1  0.240411  0.379636  0.347505  1
  O  O306  1  0.242617  0.620076  0.669803  1
  O  O307  1  0.758195  0.120391  0.513700  1
  O  O308  1  0.758190  0.879559  0.503566  1
  O  O309  1  0.757183  0.620076  0.669802  1
  O  O310  1  0.759394  0.379635  0.347505  1
  O  O311  1  0.759394  0.814948  0.665411  1
  O  O312  1  0.759152  0.184967  0.351832  1
  O  O313  1  0.759666  0.314770  0.517988  1
  O  O314  1  0.759963  0.685092  0.499272  1
  O  O315  1  0.240636  0.184970  0.351831  1
  O  O316  1  0.240401  0.814948  0.665411  1
  O  O317  1  0.239855  0.685092  0.499266  1
  O  O318  1  0.240184  0.314772  0.518003  1
  O  O319  1  0.260532  0.814512  0.499111  1
  O  O320  1  0.260352  0.185426  0.518135  1
  O  O321  1  0.260339  0.314565  0.351993  1
  O  O322  1  0.260694  0.685263  0.665283  1
  O  O323  1  0.739489  0.185420  0.518143  1
  O  O324  1  0.739280  0.814513  0.499107  1
  O  O325  1  0.739098  0.685263  0.665283  1
  O  O326  1  0.739451  0.314564  0.351991  1
  O  O327  1  0.000000  0.854174  0.655612  1
  O  O328  1  -0.000000  0.145798  0.361625  1
  O  O329  1  0.000000  0.354185  0.527553  1
  O  O330  1  -0.000000  0.645875  0.489297  1
  O  O331  1  0.499896  0.853929  0.489270  1
  O  O332  1  0.499891  0.146055  0.527976  1
  O  O333  1  0.499900  0.354134  0.361545  1
  O  O334  1  0.499897  0.645857  0.655339  1
  O  O335  1  0.764928  0.000000  0.591603  1
  O  O336  1  0.764964  0.000000  0.425666  1
  O  O337  1  0.735345  0.499734  0.591717  1
  O  O338  1  0.764579  0.499635  0.425663  1
  O  O339  1  0.234833  0.000000  0.425666  1
  O  O340  1  0.234865  0.000000  0.591603  1
  O  O341  1  0.235226  0.499636  0.425662  1
  O  O342  1  0.264454  0.499735  0.591717  1
  O  O343  1  -0.000000  0.983818  0.569458  1
  O  O344  1  0.000000  0.016146  0.447817  1
  O  O345  1  0.000000  0.488438  0.609151  1
  O  O346  1  0.000000  0.515181  0.403450  1
  O  O347  1  0.499902  0.989001  0.408297  1
  O  O348  1  0.499901  0.010986  0.608975  1
  O  O349  1  0.499899  0.488308  0.443070  1
  O  O350  1  0.499900  0.515406  0.569557  1
  O  O351  1  0.736748  0.950928  0.565414  1
  O  O352  1  0.736737  0.049036  0.451852  1
  O  O353  1  0.756129  0.450861  0.617818  1
  O  O354  1  0.738589  0.548793  0.399574  1
  O  O355  1  0.263075  0.049028  0.451855  1
  O  O356  1  0.263053  0.950933  0.565413  1
  O  O357  1  0.261210  0.548794  0.399574  1
  O  O358  1  0.243673  0.450861  0.617818  1
  O  O359  1  0.257086  0.951120  0.399606  1
  O  O360  1  0.256982  0.048841  0.617658  1
  O  O361  1  0.256045  0.450795  0.451784  1
  O  O362  1  0.238227  0.548860  0.565601  1
  O  O363  1  0.742813  0.048844  0.617657  1
  O  O364  1  0.742716  0.951120  0.399607  1
  O  O365  1  0.761571  0.548857  0.565600  1
  O  O366  1  0.743746  0.450798  0.451787  1
  O  O367  1  0.761112  0.868201  0.597420  1
  O  O368  1  0.761263  0.131758  0.419841  1
  O  O369  1  0.768233  0.368476  0.586068  1
  O  O370  1  0.763001  0.631577  0.431315  1
  O  O371  1  0.238481  0.131737  0.419841  1
  O  O372  1  0.238651  0.868209  0.597421  1
  O  O373  1  0.236807  0.631577  0.431313  1
  O  O374  1  0.231589  0.368478  0.586072  1
  O  O375  1  0.269167  0.868613  0.431085  1
  O  O376  1  0.269233  0.131324  0.586176  1
  O  O377  1  0.268334  0.368476  0.420053  1
  O  O378  1  0.263016  0.631571  0.597336  1
  O  O379  1  0.730577  0.131330  0.586177  1
  O  O380  1  0.730634  0.868607  0.431085  1
  O  O381  1  0.736778  0.631570  0.597335  1
  O  O382  1  0.731452  0.368483  0.420053  1
  O  O383  1  0.499896  0.884292  0.615676  1
  O  O384  1  0.499897  0.115731  0.401596  1
  O  O385  1  0.499905  0.381322  0.568591  1
  O  O386  1  0.499899  0.615988  0.449273  1
  O  O387  1  0.000000  0.881399  0.448373  1
  O  O388  1  -0.000000  0.118583  0.568886  1
  O  O389  1  -0.000000  0.381188  0.402572  1
  O  O390  1  0.000000  0.616098  0.615317  1
  O  O391  1  0.748655  0.704063  0.535768  1
  O  O392  1  0.749494  0.295833  0.481486  1
  O  O393  1  0.750500  0.204146  0.647427  1
  O  O394  1  0.750036  0.795777  0.369808  1
  O  O395  1  0.250295  0.295845  0.481494  1
  O  O396  1  0.251141  0.704061  0.535765  1
  O  O397  1  0.249761  0.795779  0.369808  1
  O  O398  1  0.249304  0.204143  0.647425  1
  O  O399  1  0.246445  0.704213  0.369738  1
  O  O400  1  0.247515  0.295681  0.647519  1
  O  O401  1  0.247350  0.204115  0.481545  1
  O  O402  1  0.246827  0.795822  0.535690  1
  O  O403  1  0.752289  0.295680  0.647519  1
  O  O404  1  0.753350  0.704212  0.369738  1
  O  O405  1  0.752947  0.795821  0.535686  1
  O  O406  1  0.752405  0.204114  0.481553  1
  O  O407  1  0.748884  0.749988  0.562627  1
  O  O408  1  0.749769  0.249960  0.454614  1
  O  O409  1  0.748472  0.249979  0.620534  1
  O  O410  1  0.749321  0.749957  0.396709  1
  O  O411  1  0.250060  0.249961  0.454613  1
  O  O412  1  0.250934  0.749986  0.562626  1
  O  O413  1  0.250483  0.749960  0.396709  1
  O  O414  1  0.251337  0.249975  0.620533  1
  O  O415  1  0.758566  0.680919  0.570852  1
  O  O416  1  0.755363  0.319018  0.446436  1
  O  O417  1  0.755346  0.180877  0.612448  1
  O  O418  1  0.755059  0.819077  0.404794  1
  O  O419  1  0.244495  0.319014  0.446439  1
  O  O420  1  0.241251  0.680919  0.570850  1
  O  O421  1  0.244722  0.819081  0.404795  1
  O  O422  1  0.244433  0.180870  0.612446  1
  O  O423  1  0.258956  0.680847  0.404777  1
  O  O424  1  0.255643  0.319051  0.612496  1
  O  O425  1  0.258579  0.180937  0.446438  1
  O  O426  1  0.258331  0.819019  0.570806  1
  O  O427  1  0.744136  0.319054  0.612494  1
  O  O428  1  0.740824  0.680843  0.404777  1
  O  O429  1  0.741471  0.819015  0.570803  1
  O  O430  1  0.741251  0.180950  0.446443  1
  O  O431  1  -0.000000  0.713594  0.555897  1
  O  O432  1  0.000000  0.286903  0.461088  1
  O  O433  1  0.000000  0.213399  0.626849  1
  O  O434  1  -0.000000  0.786807  0.390310  1
  O  O435  1  0.499897  0.713204  0.389523  1
  O  O436  1  0.499898  0.287292  0.627427  1
  O  O437  1  0.499893  0.213286  0.461612  1
  O  O438  1  0.499895  0.786926  0.555543  1
  O  O439  1  0.749424  0.749853  0.509504  1
  O  O440  1  0.749524  0.250049  0.507732  1
  O  O441  1  0.749294  0.249802  0.673723  1
  O  O442  1  0.749170  0.750078  0.343511  1
  O  O443  1  0.250261  0.250054  0.507730  1
  O  O444  1  0.250374  0.749854  0.509504  1
  O  O445  1  0.250625  0.750078  0.343511  1
  O  O446  1  0.250509  0.249804  0.673721  1
  O  O447  1  -0.000000  0.789239  0.513905  1
  O  O448  1  0.000000  0.210648  0.503233  1
  O  O449  1  0.000000  0.289144  0.669201  1
  O  O450  1  0.000000  0.710748  0.347875  1
  O  O451  1  0.499898  0.789601  0.348586  1
  O  O452  1  0.499896  0.210334  0.668564  1
  O  O453  1  0.499898  0.289531  0.502810  1
  O  O454  1  0.499899  0.710315  0.514310  1
  O  O455  1  0.759670  0.884319  0.561025  1
  O  O456  1  0.759713  0.115651  0.456240  1
  O  O457  1  0.748430  0.384386  0.622450  1
  O  O458  1  0.758743  0.615465  0.394943  1
  O  O459  1  0.240045  0.115639  0.456241  1
  O  O460  1  0.240100  0.884322  0.561023  1
  O  O461  1  0.241056  0.615468  0.394943  1
  O  O462  1  0.251364  0.384385  0.622453  1
  O  O463  1  0.247427  0.884635  0.394756  1
  O  O464  1  0.247616  0.115327  0.622510  1
  O  O465  1  0.248130  0.384343  0.456454  1
  O  O466  1  0.258507  0.615495  0.560946  1
  O  O467  1  0.752193  0.115332  0.622510  1
  O  O468  1  0.752372  0.884633  0.394756  1
  O  O469  1  0.741287  0.615494  0.560944  1
  O  O470  1  0.751657  0.384346  0.456455  1
  O  O471  1  0.000000  0.853062  0.575503  1
  O  O472  1  0.000000  0.146956  0.441777  1
  O  O473  1  0.000000  0.355078  0.609650  1
  O  O474  1  -0.000000  0.646840  0.409084  1
  O  O475  1  0.499896  0.855402  0.407311  1
  O  O476  1  0.499899  0.144639  0.609946  1
  O  O477  1  0.499906  0.355156  0.443663  1
  O  O478  1  0.499901  0.646759  0.575091  1
  O  O479  1  0.744158  0.925260  0.530455  1
  O  O480  1  0.744131  0.074706  0.486808  1
  O  O481  1  0.739432  0.425583  0.652819  1
  O  O482  1  0.743594  0.574218  0.364541  1
  O  O483  1  0.255683  0.074704  0.486811  1
  O  O484  1  0.255646  0.925262  0.530454  1
  O  O485  1  0.256201  0.574219  0.364542  1
  O  O486  1  0.260368  0.425583  0.652819  1
  O  O487  1  0.239264  0.926170  0.364526  1
  O  O488  1  0.239262  0.073785  0.652737  1
  O  O489  1  0.239664  0.425667  0.486815  1
  O  O490  1  0.244118  0.574166  0.530550  1
  O  O491  1  0.760529  0.073786  0.652736  1
  O  O492  1  0.760529  0.926168  0.364527  1
  O  O493  1  0.755670  0.574164  0.530550  1
  O  O494  1  0.760126  0.425669  0.486816  1
  O  O495  1  0.499896  0.914888  0.552590  1
  O  O496  1  0.499893  0.085092  0.464669  1
  O  O497  1  0.499902  0.420611  0.629119  1
  O  O498  1  0.499900  0.584294  0.386833  1
  O  O499  1  0.000000  0.921315  0.388271  1
  O  O500  1  0.000000  0.078702  0.628994  1
  O  O501  1  -0.000000  0.420634  0.463166  1
  O  O502  1  0.000000  0.584343  0.552724  1
  O  O503  1  0.000000  0.919591  0.509160  1
  O  O504  1  -0.000000  0.080361  0.508101  1
  O  O505  1  0.000000  0.419748  0.673175  1
  O  O506  1  0.000000  0.580350  0.343443  1
  O  O507  1  0.499899  0.919569  0.344345  1
  O  O508  1  0.499900  0.080352  0.672926  1
  O  O509  1  0.499886  0.419913  0.507223  1
  O  O510  1  0.499890  0.580262  0.509340  1
  O  O511  1  0.751969  0.058245  0.691126  1
  O  O512  1  0.247825  0.058243  0.691124  1
  O  O513  1  0.253989  0.441153  0.691202  1
  O  O514  1  0.745810  0.441153  0.691203  1
  O  O515  1  0.737398  0.015801  0.721464  1
  O  O516  1  0.262399  0.015799  0.721463  1
  O  O517  1  0.246786  0.484290  0.721217  1
  O  O518  1  0.753006  0.484290  0.721217  1
  O  O519  1  0.755330  0.081174  0.726555  1
  O  O520  1  0.244485  0.081171  0.726550  1
  O  O521  1  0.244937  0.418628  0.726665  1
  O  O522  1  0.754850  0.418629  0.726664  1
  O  O523  1  0.000000  0.048149  0.713372  1
  O  O524  1  0.499895  0.447836  0.714230  1
  O  O525  1  0.738598  0.142206  0.714179  1
  O  O526  1  0.261201  0.142207  0.714178  1
  O  O527  1  0.240333  0.357242  0.714446  1
  O  O528  1  0.759459  0.357240  0.714446  1
  O  O529  1  0.742424  0.119829  0.679334  1
  O  O530  1  0.257380  0.119832  0.679334  1
  O  O531  1  0.240411  0.379636  0.679527  1
  O  O532  1  0.759394  0.379635  0.679527  1
  O  O533  1  0.759152  0.184967  0.683854  1
  O  O534  1  0.240636  0.184970  0.683854  1
  O  O535  1  0.260339  0.314565  0.684016  1
  O  O536  1  0.739451  0.314564  0.684014  1
  O  O537  1  0.000000  0.145798  0.693647  1
  O  O538  1  0.499900  0.354134  0.693567  1
  O  O539  1  0.764964  0.000000  0.757689  1
  O  O540  1  0.764579  0.499635  0.757685  1
  O  O541  1  0.234833  0.000000  0.757689  1
  O  O542  1  0.235226  0.499636  0.757684  1
  O  O543  1  -0.000000  0.515181  0.735472  1
  O  O544  1  0.499902  0.989001  0.740320  1
  O  O545  1  0.738589  0.548793  0.731597  1
  O  O546  1  0.261210  0.548794  0.731597  1
  O  O547  1  0.257086  0.951120  0.731629  1
  O  O548  1  0.742716  0.951120  0.731629  1
  O  O549  1  0.761263  0.131758  0.751864  1
  O  O550  1  0.763001  0.631577  0.763338  1
  O  O551  1  0.238481  0.131737  0.751863  1
  O  O552  1  0.236807  0.631577  0.763336  1
  O  O553  1  0.269167  0.868613  0.763108  1
  O  O554  1  0.268334  0.368476  0.752075  1
  O  O555  1  0.730634  0.868607  0.763108  1
  O  O556  1  0.731452  0.368483  0.752075  1
  O  O557  1  0.499897  0.115731  0.733618  1
  O  O558  1  0.000000  0.381188  0.734594  1
  O  O559  1  0.750036  0.795777  0.701830  1
  O  O560  1  0.249761  0.795779  0.701830  1
  O  O561  1  0.246445  0.704213  0.701760  1
  O  O562  1  0.753350  0.704212  0.701761  1
  O  O563  1  0.749321  0.749957  0.728731  1
  O  O564  1  0.250483  0.749960  0.728731  1
  O  O565  1  0.755059  0.819077  0.736816  1
  O  O566  1  0.244722  0.819081  0.736817  1
  O  O567  1  0.258956  0.680847  0.736799  1
  O  O568  1  0.740824  0.680843  0.736800  1
  O  O569  1  -0.000000  0.786807  0.722333  1
  O  O570  1  0.499897  0.713204  0.721546  1
  O  O571  1  0.749170  0.750078  0.675534  1
  O  O572  1  0.250625  0.750078  0.675534  1
  O  O573  1  -0.000000  0.710748  0.679897  1
  O  O574  1  0.499898  0.789601  0.680609  1
  O  O575  1  0.758743  0.615465  0.726966  1
  O  O576  1  0.241056  0.615468  0.726965  1
  O  O577  1  0.247427  0.884635  0.726778  1
  O  O578  1  0.752372  0.884633  0.726779  1
  O  O579  1  -0.000000  0.646840  0.741107  1
  O  O580  1  0.499896  0.855402  0.739333  1
  O  O581  1  0.743594  0.574218  0.696564  1
  O  O582  1  0.256201  0.574219  0.696565  1
  O  O583  1  0.239264  0.926170  0.696549  1
  O  O584  1  0.760529  0.926168  0.696549  1
  O  O585  1  0.499900  0.584294  0.718855  1
  O  O586  1  0.000000  0.921315  0.720293  1
  O  O587  1  -0.000000  0.580350  0.675465  1
  O  O588  1  0.499899  0.919569  0.676368  1
  Si  Si589  1  0.812495  0.949711  0.304396  1
  Si  Si590  1  0.812601  0.448818  0.215105  1
  Si  Si591  1  0.812600  0.550152  0.138193  1
  Si  Si592  1  0.187297  0.949713  0.304397  1
  Si  Si593  1  0.187202  0.550149  0.138192  1
  Si  Si594  1  0.187201  0.448821  0.215106  1
  Si  Si595  1  0.312690  0.948882  0.137987  1
  Si  Si596  1  0.312690  0.051075  0.215232  1
  Si  Si597  1  0.312580  0.550243  0.304246  1
  Si  Si598  1  0.687115  0.051073  0.215232  1
  Si  Si599  1  0.687112  0.948884  0.137987  1
  Si  Si600  1  0.687210  0.550243  0.304245  1
  Si  Si601  1  0.812516  0.850626  0.324254  1
  Si  Si602  1  0.812524  0.350448  0.195135  1
  Si  Si603  1  0.812526  0.649437  0.158039  1
  Si  Si604  1  0.187281  0.850625  0.324254  1
  Si  Si605  1  0.187263  0.649436  0.158036  1
  Si  Si606  1  0.187254  0.350453  0.195142  1
  Si  Si607  1  0.312574  0.850192  0.157844  1
  Si  Si608  1  0.312553  0.149771  0.195369  1
  Si  Si609  1  0.312579  0.649537  0.324073  1
  Si  Si610  1  0.687232  0.149764  0.195372  1
  Si  Si611  1  0.687219  0.850194  0.157843  1
  Si  Si612  1  0.687216  0.649538  0.324073  1
  Si  Si613  1  0.813624  0.987288  0.238380  1
  Si  Si614  1  0.813625  0.012675  0.114845  1
  Si  Si615  1  0.813876  0.488261  0.279706  1
  Si  Si616  1  0.186165  0.012671  0.114845  1
  Si  Si617  1  0.186166  0.987291  0.238380  1
  Si  Si618  1  0.185923  0.488261  0.279706  1
  Si  Si619  1  0.313891  0.011358  0.279563  1
  Si  Si620  1  0.313883  0.488174  0.113646  1
  Si  Si621  1  0.313552  0.512324  0.238516  1
  Si  Si622  1  0.685910  0.011359  0.279563  1
  Si  Si623  1  0.686247  0.512321  0.238516  1
  Si  Si624  1  0.685913  0.488177  0.113647  1
  Si  Si625  1  0.686762  0.881796  0.285212  1
  Si  Si626  1  0.686742  0.380980  0.234384  1
  Si  Si627  1  0.686731  0.618137  0.119033  1
  Si  Si628  1  0.313029  0.881798  0.285213  1
  Si  Si629  1  0.313065  0.618132  0.119031  1
  Si  Si630  1  0.313064  0.380990  0.234390  1
  Si  Si631  1  0.186675  0.881043  0.118678  1
  Si  Si632  1  0.186684  0.118922  0.234535  1
  Si  Si633  1  0.186732  0.618211  0.285072  1
  Si  Si634  1  0.813117  0.118918  0.234538  1
  Si  Si635  1  0.813118  0.881044  0.118677  1
  Si  Si636  1  0.813053  0.618212  0.285071  1
  Si  Si637  1  0.813139  0.712177  0.225227  1
  Si  Si638  1  0.812986  0.287865  0.127923  1
  Si  Si639  1  0.812933  0.212165  0.293830  1
  Si  Si640  1  0.186863  0.287865  0.127928  1
  Si  Si641  1  0.186682  0.712176  0.225225  1
  Si  Si642  1  0.186871  0.212161  0.293828  1
  Si  Si643  1  0.313005  0.287923  0.294022  1
  Si  Si644  1  0.313141  0.212111  0.128082  1
  Si  Si645  1  0.313160  0.787900  0.225093  1
  Si  Si646  1  0.686791  0.287926  0.294022  1
  Si  Si647  1  0.686631  0.787898  0.225090  1
  Si  Si648  1  0.686648  0.212116  0.128089  1
  Si  Si649  1  0.812362  0.787573  0.182023  1
  Si  Si650  1  0.812354  0.212330  0.171151  1
  Si  Si651  1  0.812320  0.287509  0.337108  1
  Si  Si652  1  0.187453  0.212335  0.171144  1
  Si  Si653  1  0.187435  0.787572  0.182026  1
  Si  Si654  1  0.187482  0.287511  0.337108  1
  Si  Si655  1  0.312311  0.212079  0.336907  1
  Si  Si656  1  0.312318  0.287780  0.171009  1
  Si  Si657  1  0.312359  0.712115  0.182163  1
  Si  Si658  1  0.687482  0.212077  0.336909  1
  Si  Si659  1  0.687439  0.712116  0.182167  1
  Si  Si660  1  0.687477  0.287772  0.171002  1
  Si  Si661  1  0.813711  0.855763  0.244306  1
  Si  Si662  1  0.813708  0.144212  0.108913  1
  Si  Si663  1  0.813752  0.356316  0.275480  1
  Si  Si664  1  0.186071  0.144200  0.108912  1
  Si  Si665  1  0.186079  0.855768  0.244307  1
  Si  Si666  1  0.186039  0.356315  0.275483  1
  Si  Si667  1  0.313799  0.143480  0.275624  1
  Si  Si668  1  0.313774  0.356325  0.109469  1
  Si  Si669  1  0.313760  0.644081  0.244161  1
  Si  Si670  1  0.686000  0.143485  0.275625  1
  Si  Si671  1  0.686043  0.644081  0.244160  1
  Si  Si672  1  0.686038  0.356327  0.109470  1
  Si  Si673  1  0.686047  0.918802  0.220322  1
  Si  Si674  1  0.686044  0.081169  0.132895  1
  Si  Si675  1  0.686439  0.420285  0.298631  1
  Si  Si676  1  0.313750  0.081162  0.132897  1
  Si  Si677  1  0.313747  0.918805  0.220321  1
  Si  Si678  1  0.313364  0.420285  0.298631  1
  Si  Si679  1  0.186424  0.079250  0.298544  1
  Si  Si680  1  0.186434  0.420267  0.132641  1
  Si  Si681  1  0.186121  0.580763  0.220413  1
  Si  Si682  1  0.813367  0.079253  0.298543  1
  Si  Si683  1  0.813673  0.580761  0.220413  1
  Si  Si684  1  0.813359  0.420270  0.132643  1
  Si  Si685  1  0.812374  0.917491  0.177178  1
  Si  Si686  1  0.812371  0.082462  0.176040  1
  Si  Si687  1  0.812408  0.417608  0.341787  1
  Si  Si688  1  0.187421  0.082465  0.176041  1
  Si  Si689  1  0.187418  0.917490  0.177178  1
  Si  Si690  1  0.187392  0.417608  0.341786  1
  Si  Si691  1  0.312350  0.081962  0.341683  1
  Si  Si692  1  0.312387  0.417768  0.175806  1
  Si  Si693  1  0.312324  0.582055  0.177281  1
  Si  Si694  1  0.687449  0.081960  0.341683  1
  Si  Si695  1  0.687456  0.582055  0.177282  1
  Si  Si696  1  0.687386  0.417769  0.175806  1
  Si  Si697  1  0.812495  0.949711  0.636418  1
  Si  Si698  1  0.812492  0.050258  0.380854  1
  Si  Si699  1  0.812601  0.448818  0.547128  1
  Si  Si700  1  0.812600  0.550152  0.470215  1
  Si  Si701  1  0.187300  0.050255  0.380852  1
  Si  Si702  1  0.187297  0.949713  0.636420  1
  Si  Si703  1  0.187202  0.550149  0.470214  1
  Si  Si704  1  0.187201  0.448821  0.547129  1
  Si  Si705  1  0.312690  0.948882  0.470010  1
  Si  Si706  1  0.312690  0.051075  0.547255  1
  Si  Si707  1  0.312603  0.448698  0.381073  1
  Si  Si708  1  0.312580  0.550243  0.636269  1
  Si  Si709  1  0.687115  0.051073  0.547255  1
  Si  Si710  1  0.687112  0.948884  0.470009  1
  Si  Si711  1  0.687210  0.550243  0.636268  1
  Si  Si712  1  0.687186  0.448699  0.381073  1
  Si  Si713  1  0.812516  0.850626  0.656276  1
  Si  Si714  1  0.812497  0.149320  0.360978  1
  Si  Si715  1  0.812524  0.350448  0.527157  1
  Si  Si716  1  0.812526  0.649437  0.490061  1
  Si  Si717  1  0.187304  0.149323  0.360978  1
  Si  Si718  1  0.187281  0.850625  0.656277  1
  Si  Si719  1  0.187263  0.649436  0.490058  1
  Si  Si720  1  0.187254  0.350453  0.527164  1
  Si  Si721  1  0.312574  0.850192  0.489866  1
  Si  Si722  1  0.312553  0.149771  0.527391  1
  Si  Si723  1  0.312582  0.350309  0.361141  1
  Si  Si724  1  0.312579  0.649537  0.656096  1
  Si  Si725  1  0.687232  0.149764  0.527394  1
  Si  Si726  1  0.687219  0.850194  0.489866  1
  Si  Si727  1  0.687216  0.649538  0.656096  1
  Si  Si728  1  0.687218  0.350308  0.361140  1
  Si  Si729  1  0.813624  0.987288  0.570403  1
  Si  Si730  1  0.813625  0.012675  0.446868  1
  Si  Si731  1  0.813876  0.488261  0.611728  1
  Si  Si732  1  0.813543  0.512209  0.404476  1
  Si  Si733  1  0.186165  0.012671  0.446868  1
  Si  Si734  1  0.186166  0.987291  0.570402  1
  Si  Si735  1  0.186256  0.512209  0.404475  1
  Si  Si736  1  0.185923  0.488261  0.611728  1
  Si  Si737  1  0.313894  0.988609  0.405685  1
  Si  Si738  1  0.313891  0.011358  0.611585  1
  Si  Si739  1  0.313883  0.488174  0.445669  1
  Si  Si740  1  0.313552  0.512324  0.570538  1
  Si  Si741  1  0.685910  0.011359  0.611585  1
  Si  Si742  1  0.685910  0.988609  0.405684  1
  Si  Si743  1  0.686247  0.512321  0.570538  1
  Si  Si744  1  0.685913  0.488177  0.445670  1
  Si  Si745  1  0.686762  0.881796  0.617234  1
  Si  Si746  1  0.686772  0.118185  0.400030  1
  Si  Si747  1  0.686742  0.380980  0.566407  1
  Si  Si748  1  0.686731  0.618137  0.451056  1
  Si  Si749  1  0.313021  0.118181  0.400028  1
  Si  Si750  1  0.313029  0.881798  0.617235  1
  Si  Si751  1  0.313065  0.618132  0.451053  1
  Si  Si752  1  0.313064  0.380990  0.566412  1
  Si  Si753  1  0.186675  0.881043  0.450701  1
  Si  Si754  1  0.186684  0.118922  0.566558  1
  Si  Si755  1  0.186727  0.380892  0.400380  1
  Si  Si756  1  0.186732  0.618211  0.617094  1
  Si  Si757  1  0.813117  0.118918  0.566560  1
  Si  Si758  1  0.813118  0.881044  0.450700  1
  Si  Si759  1  0.813053  0.618212  0.617094  1
  Si  Si760  1  0.813059  0.380892  0.400379  1
  Si  Si761  1  0.813139  0.712177  0.557250  1
  Si  Si762  1  0.812986  0.287865  0.459946  1
  Si  Si763  1  0.812933  0.212165  0.625852  1
  Si  Si764  1  0.812940  0.787837  0.391372  1
  Si  Si765  1  0.186863  0.287865  0.459951  1
  Si  Si766  1  0.186682  0.712176  0.557247  1
  Si  Si767  1  0.186856  0.787840  0.391373  1
  Si  Si768  1  0.186871  0.212161  0.625850  1
  Si  Si769  1  0.313168  0.712105  0.391143  1
  Si  Si770  1  0.313005  0.287923  0.626045  1
  Si  Si771  1  0.313141  0.212111  0.460105  1
  Si  Si772  1  0.313160  0.787900  0.557116  1
  Si  Si773  1  0.686791  0.287926  0.626045  1
  Si  Si774  1  0.686626  0.712102  0.391144  1
  Si  Si775  1  0.686631  0.787898  0.557113  1
  Si  Si776  1  0.686648  0.212116  0.460112  1
  Si  Si777  1  0.812362  0.787573  0.514046  1
  Si  Si778  1  0.812354  0.212330  0.503174  1
  Si  Si779  1  0.812320  0.287509  0.669130  1
  Si  Si780  1  0.812351  0.712372  0.348078  1
  Si  Si781  1  0.187453  0.212335  0.503167  1
  Si  Si782  1  0.187435  0.787572  0.514048  1
  Si  Si783  1  0.187442  0.712372  0.348077  1
  Si  Si784  1  0.187482  0.287511  0.669131  1
  Si  Si785  1  0.312333  0.787819  0.348286  1
  Si  Si786  1  0.312311  0.212079  0.668930  1
  Si  Si787  1  0.312318  0.287780  0.503032  1
  Si  Si788  1  0.312359  0.712115  0.514186  1
  Si  Si789  1  0.687482  0.212077  0.668931  1
  Si  Si790  1  0.687463  0.787819  0.348286  1
  Si  Si791  1  0.687439  0.712116  0.514189  1
  Si  Si792  1  0.687477  0.287772  0.503025  1
  Si  Si793  1  0.813711  0.855763  0.576329  1
  Si  Si794  1  0.813708  0.144212  0.440936  1
  Si  Si795  1  0.813752  0.356316  0.607503  1
  Si  Si796  1  0.813763  0.644085  0.410163  1
  Si  Si797  1  0.186071  0.144200  0.440935  1
  Si  Si798  1  0.186079  0.855768  0.576329  1
  Si  Si799  1  0.186030  0.644087  0.410162  1
  Si  Si800  1  0.186039  0.356315  0.607505  1
  Si  Si801  1  0.313797  0.856490  0.409611  1
  Si  Si802  1  0.313799  0.143480  0.607647  1
  Si  Si803  1  0.313774  0.356325  0.441492  1
  Si  Si804  1  0.313760  0.644081  0.576183  1
  Si  Si805  1  0.686000  0.143485  0.607647  1
  Si  Si806  1  0.685996  0.856487  0.409610  1
  Si  Si807  1  0.686043  0.644081  0.576182  1
  Si  Si808  1  0.686038  0.356327  0.441492  1
  Si  Si809  1  0.686047  0.918802  0.552345  1
  Si  Si810  1  0.686044  0.081169  0.464918  1
  Si  Si811  1  0.686439  0.420285  0.630653  1
  Si  Si812  1  0.686134  0.580727  0.386456  1
  Si  Si813  1  0.313750  0.081162  0.464920  1
  Si  Si814  1  0.313747  0.918805  0.552344  1
  Si  Si815  1  0.313666  0.580729  0.386457  1
  Si  Si816  1  0.313364  0.420285  0.630653  1
  Si  Si817  1  0.186420  0.920723  0.386697  1
  Si  Si818  1  0.186424  0.079250  0.630566  1
  Si  Si819  1  0.186434  0.420267  0.464664  1
  Si  Si820  1  0.186121  0.580763  0.552436  1
  Si  Si821  1  0.813367  0.079253  0.630566  1
  Si  Si822  1  0.813372  0.920722  0.386698  1
  Si  Si823  1  0.813673  0.580761  0.552436  1
  Si  Si824  1  0.813359  0.420270  0.464665  1
  Si  Si825  1  0.812374  0.917491  0.509201  1
  Si  Si826  1  0.812371  0.082462  0.508063  1
  Si  Si827  1  0.812408  0.417608  0.673809  1
  Si  Si828  1  0.812339  0.582169  0.343329  1
  Si  Si829  1  0.187421  0.082465  0.508064  1
  Si  Si830  1  0.187418  0.917490  0.509200  1
  Si  Si831  1  0.187458  0.582170  0.343330  1
  Si  Si832  1  0.187392  0.417608  0.673809  1
  Si  Si833  1  0.312354  0.917977  0.343559  1
  Si  Si834  1  0.312350  0.081962  0.673705  1
  Si  Si835  1  0.312387  0.417768  0.507828  1
  Si  Si836  1  0.312324  0.582055  0.509304  1
  Si  Si837  1  0.687449  0.081960  0.673705  1
  Si  Si838  1  0.687444  0.917977  0.343559  1
  Si  Si839  1  0.687456  0.582055  0.509304  1
  Si  Si840  1  0.687386  0.417769  0.507828  1
  Si  Si841  1  0.812492  0.050258  0.712876  1
  Si  Si842  1  0.187300  0.050255  0.712874  1
  Si  Si843  1  0.312603  0.448698  0.713096  1
  Si  Si844  1  0.687186  0.448699  0.713096  1
  Si  Si845  1  0.812497  0.149320  0.693001  1
  Si  Si846  1  0.187304  0.149323  0.693000  1
  Si  Si847  1  0.312582  0.350309  0.693163  1
  Si  Si848  1  0.687218  0.350308  0.693162  1
  Si  Si849  1  0.813543  0.512209  0.736498  1
  Si  Si850  1  0.186256  0.512209  0.736498  1
  Si  Si851  1  0.313894  0.988609  0.737707  1
  Si  Si852  1  0.685910  0.988609  0.737707  1
  Si  Si853  1  0.686772  0.118185  0.732052  1
  Si  Si854  1  0.313021  0.118181  0.732050  1
  Si  Si855  1  0.186727  0.380892  0.732402  1
  Si  Si856  1  0.813059  0.380892  0.732402  1
  Si  Si857  1  0.812940  0.787837  0.723395  1
  Si  Si858  1  0.186856  0.787840  0.723396  1
  Si  Si859  1  0.313168  0.712105  0.723166  1
  Si  Si860  1  0.686626  0.712102  0.723167  1
  Si  Si861  1  0.812351  0.712372  0.680101  1
  Si  Si862  1  0.187442  0.712372  0.680100  1
  Si  Si863  1  0.312333  0.787819  0.680309  1
  Si  Si864  1  0.687463  0.787819  0.680308  1
  Si  Si865  1  0.813763  0.644085  0.742185  1
  Si  Si866  1  0.186030  0.644087  0.742184  1
  Si  Si867  1  0.313797  0.856490  0.741633  1
  Si  Si868  1  0.685996  0.856487  0.741633  1
  Si  Si869  1  0.686134  0.580727  0.718479  1
  Si  Si870  1  0.313666  0.580729  0.718479  1
  Si  Si871  1  0.186420  0.920723  0.718720  1
  Si  Si872  1  0.813372  0.920722  0.718720  1
  Si  Si873  1  0.812339  0.582169  0.675352  1
  Si  Si874  1  0.187458  0.582170  0.675353  1
  Si  Si875  1  0.312354  0.917977  0.675582  1
  Si  Si876  1  0.687444  0.917977  0.675582  1
  H  H877  1  0.764964  0.000000  0.080248  1
  H  H878  1  0.764579  0.499635  0.080244  1
  H  H879  1  0.234833  0.000000  0.080248  1
  H  H880  1  0.235226  0.499636  0.080243  1
  H  H881  1  0.761263  0.131758  0.074423  1
  H  H882  1  0.763001  0.631577  0.085896  1
  H  H883  1  0.238481  0.131737  0.074422  1
  H  H884  1  0.236807  0.631577  0.085895  1
  H  H885  1  0.269167  0.868613  0.085666  1
  H  H886  1  0.268334  0.368476  0.074634  1
  H  H887  1  0.730634  0.868607  0.085666  1
  H  H888  1  0.731452  0.368483  0.074634  1
  H  H889  1  0.764964  0.000000  0.771085  1
  H  H890  1  0.764579  0.499635  0.771081  1
  H  H891  1  0.234833  0.000000  0.771085  1
  H  H892  1  0.235226  0.499636  0.771080  1
  H  H893  1  0.761263  0.131758  0.765260  1
  H  H894  1  0.763001  0.631577  0.776734  1
  H  H895  1  0.238481  0.131737  0.765259  1
  H  H896  1  0.236807  0.631577  0.776732  1
  H  H897  1  0.269167  0.868613  0.776504  1
  H  H898  1  0.268334  0.368476  0.765471  1
  H  H899  1  0.730634  0.868607  0.776504  1
  H  H900  1  0.731452  0.368483  0.765471  1
