# generated using pymatgen
data_Si62H2O125
_symmetry_space_group_name_H-M   'P 1'
_cell_length_a   17.25289407
_cell_length_b   17.25278161
_cell_length_c   127.42792816
_cell_angle_alpha   90.00000000
_cell_angle_beta   90.00000000
_cell_angle_gamma   120.00000000
_symmetry_Int_Tables_number   1
_chemical_formula_structural   Si62H2O125
_chemical_formula_sum   'Si372 H12 O750'
_cell_volume   32848.5598914
_cell_formula_units_Z   6
loop_
 _symmetry_equiv_pos_site_id
 _symmetry_equiv_pos_as_xyz
  1  'x, y, z'
loop_
 _atom_site_type_symbol
 _atom_site_label
 _atom_site_symmetry_multiplicity
 _atom_site_fract_x
 _atom_site_fract_y
 _atom_site_fract_z
 _atom_site_occupancy
  O  O1  1  0.353471  0.433930  0.046317  1
  O  O2  1  0.080477  0.433859  0.046327  1
  O  O3  1  0.343097  0.457072  0.066301  1
  O  O4  1  0.114124  0.457085  0.066307  1
  O  O5  1  0.258817  0.030173  0.074493  1
  O  O6  1  0.970093  0.228459  0.074508  1
  O  O7  1  0.258822  0.228460  0.074506  1
  O  O8  1  0.771900  0.030070  0.074511  1
  O  O9  1  0.663946  0.041262  0.061221  1
  O  O10  1  0.377419  0.336181  0.061232  1
  O  O11  1  0.958891  0.336173  0.061254  1
  O  O12  1  0.377389  0.041151  0.061206  1
  O  O13  1  0.811026  0.189074  0.069054  1
  O  O14  1  0.378544  0.189244  0.069031  1
  O  O15  1  0.237412  0.474596  0.079509  1
  O  O16  1  0.666987  0.082585  0.080071  1
  O  O17  1  0.416433  0.082810  0.080031  1
  O  O18  1  0.416338  0.333488  0.080070  1
  O  O19  1  0.091256  0.181152  0.120122  1
  O  O20  1  0.182649  0.090891  0.148796  1
  O  O21  1  0.909566  0.090928  0.148791  1
  O  O22  1  0.157790  0.078253  0.121574  1
  O  O23  1  0.921851  0.078352  0.121560  1
  O  O24  1  0.079005  0.156719  0.147366  1
  O  O25  1  0.253753  0.020225  0.113819  1
  O  O26  1  0.980606  0.232656  0.113832  1
  O  O27  1  0.253250  0.232572  0.113830  1
  O  O28  1  0.767604  0.020132  0.113839  1
  O  O29  1  0.233221  0.252767  0.155085  1
  O  O30  1  0.020715  0.252818  0.155071  1
  O  O31  1  -0.000000  0.204632  0.134452  1
  O  O32  1  0.205284  0.204598  0.134459  1
  O  O33  1  0.192461  0.096016  0.188288  1
  O  O34  1  0.210041  0.219246  0.175069  1
  O  O35  1  0.010078  0.219251  0.175053  1
  O  O36  1  0.219714  0.009737  0.093839  1
  O  O37  1  0.990720  0.209641  0.093847  1
  O  O38  1  0.219553  0.209595  0.093846  1
  O  O39  1  0.790742  0.009820  0.093861  1
  O  O40  1  0.076331  0.151872  0.186972  1
  O  O41  1  0.152203  0.075951  0.081934  1
  O  O42  1  0.924343  0.075998  0.081939  1
  O  O43  1  0.363636  0.438291  0.085643  1
  O  O44  1  0.074953  0.438249  0.085651  1
  O  O45  1  0.438522  0.074645  0.183299  1
  O  O46  1  0.925303  0.363298  0.183279  1
  O  O47  1  0.636860  0.074819  0.183296  1
  O  O48  1  0.438492  0.363444  0.183279  1
  O  O49  1  0.375071  0.044244  0.098872  1
  O  O50  1  0.956465  0.330529  0.098937  1
  O  O51  1  0.374752  0.330599  0.098907  1
  O  O52  1  0.669979  0.044290  0.098923  1
  O  O53  1  0.330871  0.374439  0.170002  1
  O  O54  1  0.044434  0.374466  0.169987  1
  O  O55  1  0.904334  0.096003  0.188262  1
  O  O56  1  0.096325  0.192101  0.080632  1
  O  O57  1  0.522705  0.477703  0.091113  1
  O  O58  1  0.522921  0.045057  0.091073  1
  O  O59  1  0.955232  0.477471  0.091119  1
  O  O60  1  0.320182  0.159979  0.102156  1
  O  O61  1  0.840656  0.159994  0.102209  1
  O  O62  1  0.160323  0.319691  0.166730  1
  O  O63  1  0.917426  0.333235  0.080102  1
  O  O64  1  0.082786  0.415872  0.188835  1
  O  O65  1  0.333591  0.416083  0.188835  1
  O  O66  1  0.484980  0.242461  0.228903  1
  O  O67  1  0.757785  0.242424  0.228898  1
  O  O68  1  0.848555  0.424255  0.257561  1
  O  O69  1  0.575805  0.424258  0.257562  1
  O  O70  1  0.575908  0.151580  0.257570  1
  O  O71  1  0.588383  0.176440  0.230336  1
  O  O72  1  0.823773  0.411803  0.230329  1
  O  O73  1  0.588245  0.411830  0.230334  1
  O  O74  1  0.745195  0.490294  0.256129  1
  O  O75  1  0.509794  0.254880  0.256134  1
  O  O76  1  0.745293  0.254884  0.256130  1
  O  O77  1  0.434110  0.080498  0.222619  1
  O  O78  1  0.919762  0.353479  0.222607  1
  O  O79  1  0.646693  0.080432  0.222618  1
  O  O80  1  0.434016  0.353447  0.222600  1
  O  O81  1  0.413882  0.313206  0.263860  1
  O  O82  1  0.686921  0.100622  0.263858  1
  O  O83  1  0.413929  0.100595  0.263861  1
  O  O84  1  0.899536  0.313300  0.263858  1
  O  O85  1  0.462047  0.128593  0.243238  1
  O  O86  1  0.871630  0.333375  0.243230  1
  O  O87  1  0.666814  0.128573  0.243235  1
  O  O88  1  0.461919  0.333328  0.243232  1
  O  O89  1  0.292222  0.002797  0.278772  1
  O  O90  1  0.710936  0.002895  0.278764  1
  O  O91  1  0.447446  0.323593  0.283844  1
  O  O92  1  0.676462  0.123679  0.283840  1
  O  O93  1  0.447442  0.123689  0.283844  1
  O  O94  1  0.876357  0.323681  0.283844  1
  O  O95  1  0.457204  0.113962  0.202638  1
  O  O96  1  0.886241  0.343029  0.202627  1
  O  O97  1  0.657137  0.113928  0.202641  1
  O  O98  1  0.457225  0.342980  0.202621  1
  O  O99  1  0.742653  0.485208  0.295760  1
  O  O100  1  0.514792  0.257310  0.295760  1
  O  O101  1  0.742677  0.257313  0.295754  1
  O  O102  1  0.590904  0.181360  0.190731  1
  O  O103  1  0.818778  0.409233  0.190716  1
  O  O104  1  0.590897  0.409227  0.190710  1
  O  O105  1  0.228712  0.258573  0.194408  1
  O  O106  1  0.030400  0.258438  0.194397  1
  O  O107  1  0.104955  0.408053  0.292044  1
  O  O108  1  0.303248  0.408039  0.292042  1
  O  O109  1  0.041501  0.377502  0.207688  1
  O  O110  1  0.336322  0.377347  0.207675  1
  O  O111  1  0.292230  0.289275  0.278775  1
  O  O112  1  0.997250  0.289358  0.278774  1
  O  O113  1  0.762910  0.237227  0.189441  1
  O  O114  1  0.474745  0.237196  0.189423  1
  O  O115  1  0.570673  0.141163  0.297044  1
  O  O116  1  0.189329  0.378307  0.199856  1
  O  O117  1  0.144226  0.288290  0.286584  1
  O  O118  1  0.986597  0.493229  0.210964  1
  O  O119  1  0.506934  0.493178  0.210947  1
  O  O120  1  0.506939  0.013527  0.210974  1
  O  O121  1  0.346996  0.173431  0.275506  1
  O  O122  1  0.826668  0.173525  0.275504  1
  O  O123  1  0.858781  0.429326  0.297054  1
  O  O124  1  0.570650  0.429324  0.297052  1
  O  O125  1  0.566177  0.919536  0.046310  1
  O  O126  1  0.080465  0.646500  0.046323  1
  O  O127  1  0.353516  0.919421  0.046301  1
  O  O128  1  0.566183  0.646476  0.046321  1
  O  O129  1  0.543102  0.886044  0.066287  1
  O  O130  1  0.114097  0.656981  0.066302  1
  O  O131  1  0.343105  0.885937  0.066283  1
  O  O132  1  0.543087  0.656931  0.066300  1
  O  O133  1  0.409435  0.818606  0.078194  1
  O  O134  1  0.181549  0.590741  0.078214  1
  O  O135  1  0.409417  0.590721  0.078210  1
  O  O136  1  0.771837  0.741548  0.074530  1
  O  O137  1  0.970027  0.741407  0.074515  1
  O  O138  1  0.958879  0.622626  0.061250  1
  O  O139  1  0.663876  0.622460  0.061242  1
  O  O140  1  0.810908  0.621680  0.069072  1
  O  O141  1  0.013622  0.506769  0.057976  1
  O  O142  1  0.493248  0.506732  0.057964  1
  O  O143  1  0.493303  0.986431  0.057949  1
  O  O144  1  0.525559  0.762731  0.079487  1
  O  O145  1  0.237432  0.762769  0.079500  1
  O  O146  1  0.818630  0.909107  0.120131  1
  O  O147  1  0.091917  0.908994  0.120137  1
  O  O148  1  0.909926  0.818574  0.148801  1
  O  O149  1  0.922398  0.843391  0.121558  1
  O  O150  1  0.843562  0.921623  0.147366  1
  O  O151  1  0.079339  0.921599  0.147355  1
  O  O152  1  0.767931  0.747235  0.113854  1
  O  O153  1  0.980403  0.747217  0.113838  1
  O  O154  1  0.747587  0.979885  0.155095  1
  O  O155  1  0.020635  0.767313  0.155095  1
  O  O156  1  0.747860  0.767320  0.155089  1
  O  O157  1  0.233390  0.979779  0.155115  1
  O  O158  1  0.796052  0.795393  0.134466  1
  O  O159  1  -0.000000  0.795291  0.134464  1
  O  O160  1  0.096346  0.903954  0.080640  1
  O  O161  1  0.781039  0.990199  0.175074  1
  O  O162  1  0.009987  0.790343  0.175080  1
  O  O163  1  0.781153  0.790346  0.175077  1
  O  O164  1  0.209987  0.990200  0.175093  1
  O  O165  1  0.790737  0.780718  0.093874  1
  O  O166  1  0.990683  0.780761  0.093855  1
  O  O167  1  0.848439  0.923974  0.186991  1
  O  O168  1  0.076292  0.923989  0.186999  1
  O  O169  1  0.924346  0.848118  0.081952  1
  O  O170  1  0.561943  0.925141  0.085634  1
  O  O171  1  0.074933  0.636531  0.085645  1
  O  O172  1  0.363783  0.925341  0.085617  1
  O  O173  1  0.561877  0.636665  0.085650  1
  O  O174  1  0.636798  0.561734  0.183276  1
  O  O175  1  0.925415  0.561657  0.183280  1
  O  O176  1  0.669858  0.625523  0.098943  1
  O  O177  1  0.956334  0.625533  0.098922  1
  O  O178  1  0.625798  0.955736  0.170008  1
  O  O179  1  0.044211  0.669372  0.170016  1
  O  O180  1  0.625985  0.669473  0.169995  1
  O  O181  1  0.330854  0.955772  0.170045  1
  O  O182  1  0.666807  0.584116  0.080096  1
  O  O183  1  0.205818  0.000000  0.134471  1
  O  O184  1  0.477850  0.522511  0.177809  1
  O  O185  1  0.477934  0.954930  0.177845  1
  O  O186  1  0.045082  0.522262  0.177811  1
  O  O187  1  0.840540  0.680297  0.102194  1
  O  O188  1  0.680737  0.840027  0.166726  1
  O  O189  1  0.160223  0.839995  0.166766  1
  O  O190  1  0.904278  0.807835  0.188295  1
  O  O191  1  0.808196  0.903979  0.080671  1
  O  O192  1  0.584275  0.666735  0.188831  1
  O  O193  1  0.917393  0.583895  0.080089  1
  O  O194  1  0.795586  0.000000  0.134466  1
  O  O195  1  0.757629  0.515086  0.228898  1
  O  O196  1  0.646656  0.566062  0.222600  1
  O  O197  1  0.919607  0.566056  0.222607  1
  O  O198  1  0.899432  0.586162  0.263860  1
  O  O199  1  0.686826  0.586170  0.263860  1
  O  O200  1  0.666746  0.538152  0.243230  1
  O  O201  1  0.871519  0.538120  0.243230  1
  O  O202  1  0.762901  0.525362  0.189416  1
  O  O203  1  0.876275  0.552551  0.283844  1
  O  O204  1  0.676370  0.552560  0.283844  1
  O  O205  1  0.657136  0.542874  0.202620  1
  O  O206  1  0.886122  0.542895  0.202623  1
  O  O207  1  0.741917  0.969907  0.194421  1
  O  O208  1  0.030436  0.771473  0.194419  1
  O  O209  1  0.741721  0.771515  0.194419  1
  O  O210  1  0.228712  0.969767  0.194434  1
  O  O211  1  0.591936  0.696750  0.292043  1
  O  O212  1  0.303241  0.895047  0.292038  1
  O  O213  1  0.591851  0.894955  0.292046  1
  O  O214  1  0.104907  0.696730  0.292041  1
  O  O215  1  0.336351  0.958782  0.207711  1
  O  O216  1  0.622830  0.663802  0.207676  1
  O  O217  1  0.041343  0.663770  0.207692  1
  O  O218  1  0.622760  0.958702  0.207707  1
  O  O219  1  0.997174  0.707778  0.278776  1
  O  O220  1  0.710700  0.707789  0.278777  1
  O  O221  1  0.333700  0.917165  0.188881  1
  O  O222  1  0.082922  0.666457  0.188852  1
  O  O223  1  0.584462  0.917375  0.188857  1
  O  O224  1  0.189403  0.810688  0.199886  1
  O  O225  1  0.622046  0.810903  0.199876  1
  O  O226  1  0.144207  0.855778  0.286583  1
  O  O227  1  0.711665  0.855788  0.286582  1
  O  O228  1  0.826549  0.653009  0.275512  1
  O  O229  1  0.242447  0.484856  0.366329  1
  O  O230  1  0.100609  0.413726  0.331369  1
  O  O231  1  0.313249  0.413779  0.331368  1
  O  O232  1  0.353471  0.433930  0.372619  1
  O  O233  1  0.080477  0.433859  0.372629  1
  O  O234  1  0.128514  0.461758  0.351998  1
  O  O235  1  0.333356  0.461863  0.351995  1
  O  O236  1  0.343097  0.457072  0.392603  1
  O  O237  1  0.114124  0.457085  0.392609  1
  O  O238  1  0.123783  0.447334  0.311386  1
  O  O239  1  0.323680  0.447332  0.311384  1
  O  O240  1  0.408143  0.303148  0.303186  1
  O  O241  1  0.696835  0.104832  0.303181  1
  O  O242  1  0.408152  0.104826  0.303184  1
  O  O243  1  0.895144  0.303147  0.303185  1
  O  O244  1  0.258817  0.030173  0.400795  1
  O  O245  1  0.970093  0.228459  0.400810  1
  O  O246  1  0.258822  0.228460  0.400808  1
  O  O247  1  0.771900  0.030070  0.400813  1
  O  O248  1  0.002879  0.292102  0.316450  1
  O  O249  1  0.289367  0.292118  0.316453  1
  O  O250  1  0.663946  0.041262  0.387523  1
  O  O251  1  0.377419  0.336181  0.387534  1
  O  O252  1  0.958891  0.336173  0.387556  1
  O  O253  1  0.377389  0.041151  0.387508  1
  O  O254  1  0.855867  0.144095  0.308636  1
  O  O255  1  0.288392  0.144115  0.308642  1
  O  O256  1  0.811026  0.189074  0.395357  1
  O  O257  1  0.378544  0.189244  0.395333  1
  O  O258  1  0.173501  0.346879  0.319718  1
  O  O259  1  0.237412  0.474596  0.405812  1
  O  O260  1  0.666987  0.082585  0.406373  1
  O  O261  1  0.416433  0.082810  0.406333  1
  O  O262  1  0.416338  0.333488  0.406372  1
  O  O263  1  0.250654  0.250550  0.297614  1
  O  O264  1  -0.000000  0.250554  0.297611  1
  O  O265  1  0.091256  0.181152  0.446424  1
  O  O266  1  0.182649  0.090891  0.475098  1
  O  O267  1  0.909566  0.090928  0.475093  1
  O  O268  1  0.157790  0.078253  0.447876  1
  O  O269  1  0.921851  0.078352  0.447862  1
  O  O270  1  0.079005  0.156719  0.473668  1
  O  O271  1  0.253753  0.020225  0.440121  1
  O  O272  1  0.980606  0.232656  0.440134  1
  O  O273  1  0.253250  0.232572  0.440132  1
  O  O274  1  0.767604  0.020132  0.440141  1
  O  O275  1  0.233221  0.252767  0.481387  1
  O  O276  1  0.020715  0.252818  0.481373  1
  O  O277  1  -0.000000  0.204632  0.460754  1
  O  O278  1  0.205284  0.204598  0.460761  1
  O  O279  1  0.192461  0.096016  0.514590  1
  O  O280  1  0.210041  0.219246  0.501371  1
  O  O281  1  0.010078  0.219251  0.501355  1
  O  O282  1  0.219714  0.009737  0.420141  1
  O  O283  1  0.990720  0.209641  0.420149  1
  O  O284  1  0.219553  0.209595  0.420148  1
  O  O285  1  0.790742  0.009820  0.420163  1
  O  O286  1  0.076331  0.151872  0.513274  1
  O  O287  1  0.152203  0.075951  0.408236  1
  O  O288  1  0.924343  0.075998  0.408241  1
  O  O289  1  0.363636  0.438291  0.411945  1
  O  O290  1  0.074953  0.438249  0.411954  1
  O  O291  1  0.438522  0.074645  0.509601  1
  O  O292  1  0.925303  0.363298  0.509581  1
  O  O293  1  0.636860  0.074819  0.509598  1
  O  O294  1  0.438492  0.363444  0.509581  1
  O  O295  1  0.375071  0.044244  0.425174  1
  O  O296  1  0.956465  0.330529  0.425239  1
  O  O297  1  0.374752  0.330599  0.425209  1
  O  O298  1  0.669979  0.044290  0.425225  1
  O  O299  1  0.330871  0.374439  0.496305  1
  O  O300  1  0.044434  0.374466  0.496289  1
  O  O301  1  0.904334  0.096003  0.514564  1
  O  O302  1  0.096325  0.192101  0.406934  1
  O  O303  1  0.522705  0.477703  0.417415  1
  O  O304  1  0.522921  0.045057  0.417375  1
  O  O305  1  0.955232  0.477471  0.417421  1
  O  O306  1  0.320182  0.159979  0.428458  1
  O  O307  1  0.840656  0.159994  0.428511  1
  O  O308  1  0.160323  0.319691  0.493032  1
  O  O309  1  0.917426  0.333235  0.406404  1
  O  O310  1  0.082786  0.415872  0.515137  1
  O  O311  1  0.333591  0.416083  0.515137  1
  O  O312  1  0.484980  0.242461  0.555205  1
  O  O313  1  0.757785  0.242424  0.555200  1
  O  O314  1  0.848555  0.424255  0.583863  1
  O  O315  1  0.575805  0.424258  0.583865  1
  O  O316  1  0.575908  0.151580  0.583872  1
  O  O317  1  0.588383  0.176440  0.556638  1
  O  O318  1  0.823773  0.411803  0.556631  1
  O  O319  1  0.588245  0.411830  0.556636  1
  O  O320  1  0.745195  0.490294  0.582431  1
  O  O321  1  0.509794  0.254880  0.582437  1
  O  O322  1  0.745293  0.254884  0.582432  1
  O  O323  1  0.434110  0.080498  0.548921  1
  O  O324  1  0.919762  0.353479  0.548909  1
  O  O325  1  0.646693  0.080432  0.548920  1
  O  O326  1  0.434016  0.353447  0.548903  1
  O  O327  1  0.413882  0.313206  0.590162  1
  O  O328  1  0.686921  0.100622  0.590160  1
  O  O329  1  0.413929  0.100595  0.590163  1
  O  O330  1  0.899536  0.313300  0.590161  1
  O  O331  1  0.462047  0.128593  0.569540  1
  O  O332  1  0.871630  0.333375  0.569532  1
  O  O333  1  0.666814  0.128573  0.569537  1
  O  O334  1  0.461919  0.333328  0.569534  1
  O  O335  1  0.292222  0.002797  0.605074  1
  O  O336  1  0.710936  0.002895  0.605066  1
  O  O337  1  0.447446  0.323593  0.610146  1
  O  O338  1  0.676462  0.123679  0.610142  1
  O  O339  1  0.447442  0.123689  0.610146  1
  O  O340  1  0.876357  0.323681  0.610146  1
  O  O341  1  0.457204  0.113962  0.528940  1
  O  O342  1  0.886241  0.343029  0.528930  1
  O  O343  1  0.657137  0.113928  0.528943  1
  O  O344  1  0.457225  0.342980  0.528923  1
  O  O345  1  0.742653  0.485208  0.622062  1
  O  O346  1  0.514792  0.257310  0.622062  1
  O  O347  1  0.742677  0.257313  0.622056  1
  O  O348  1  0.590904  0.181360  0.517033  1
  O  O349  1  0.818778  0.409233  0.517019  1
  O  O350  1  0.590897  0.409227  0.517012  1
  O  O351  1  0.228712  0.258573  0.520710  1
  O  O352  1  0.030400  0.258438  0.520700  1
  O  O353  1  0.104955  0.408053  0.618346  1
  O  O354  1  0.303248  0.408039  0.618344  1
  O  O355  1  0.041501  0.377502  0.533990  1
  O  O356  1  0.336322  0.377347  0.533977  1
  O  O357  1  0.292230  0.289275  0.605077  1
  O  O358  1  0.997250  0.289358  0.605076  1
  O  O359  1  0.762910  0.237227  0.515743  1
  O  O360  1  0.474745  0.237196  0.515725  1
  O  O361  1  0.570673  0.141163  0.623346  1
  O  O362  1  0.189329  0.378307  0.526158  1
  O  O363  1  0.144226  0.288290  0.612886  1
  O  O364  1  0.986597  0.493229  0.537267  1
  O  O365  1  0.506934  0.493178  0.537249  1
  O  O366  1  0.506939  0.013527  0.537276  1
  O  O367  1  0.346996  0.173431  0.601808  1
  O  O368  1  0.826668  0.173525  0.601807  1
  O  O369  1  0.858781  0.429326  0.623357  1
  O  O370  1  0.570650  0.429324  0.623355  1
  O  O371  1  0.151476  0.575641  0.337665  1
  O  O372  1  0.424264  0.575720  0.337663  1
  O  O373  1  0.424283  0.848368  0.337656  1
  O  O374  1  0.515328  0.757564  0.366329  1
  O  O375  1  0.242443  0.757441  0.366323  1
  O  O376  1  0.254849  0.509639  0.339097  1
  O  O377  1  0.490379  0.745093  0.339098  1
  O  O378  1  0.254859  0.745022  0.339091  1
  O  O379  1  0.411881  0.823500  0.364889  1
  O  O380  1  0.176291  0.588072  0.364895  1
  O  O381  1  0.411889  0.588186  0.364896  1
  O  O382  1  0.586223  0.686703  0.331370  1
  O  O383  1  0.313257  0.899300  0.331362  1
  O  O384  1  0.586252  0.899348  0.331367  1
  O  O385  1  0.100614  0.686695  0.331367  1
  O  O386  1  0.566177  0.919536  0.372612  1
  O  O387  1  0.080465  0.646500  0.372625  1
  O  O388  1  0.353516  0.919421  0.372603  1
  O  O389  1  0.566183  0.646476  0.372623  1
  O  O390  1  0.538199  0.666588  0.351997  1
  O  O391  1  0.333367  0.871308  0.351986  1
  O  O392  1  0.538202  0.871411  0.351993  1
  O  O393  1  0.128522  0.666589  0.351995  1
  O  O394  1  0.707876  0.997092  0.316448  1
  O  O395  1  0.289358  0.997089  0.316449  1
  O  O396  1  0.543102  0.886044  0.392589  1
  O  O397  1  0.114097  0.656981  0.392604  1
  O  O398  1  0.343105  0.885937  0.392586  1
  O  O399  1  0.543087  0.656931  0.392603  1
  O  O400  1  0.552645  0.676273  0.311387  1
  O  O401  1  0.323652  0.876178  0.311380  1
  O  O402  1  0.552638  0.876183  0.311388  1
  O  O403  1  0.123771  0.676286  0.311383  1
  O  O404  1  0.409435  0.818606  0.404497  1
  O  O405  1  0.181549  0.590741  0.404516  1
  O  O406  1  0.409417  0.590721  0.404513  1
  O  O407  1  0.257420  0.514695  0.299469  1
  O  O408  1  0.485254  0.742521  0.299475  1
  O  O409  1  0.257382  0.742558  0.299465  1
  O  O410  1  0.895135  0.591848  0.303186  1
  O  O411  1  0.696824  0.591858  0.303185  1
  O  O412  1  0.771837  0.741548  0.400832  1
  O  O413  1  0.970027  0.741407  0.400817  1
  O  O414  1  0.707870  0.710614  0.316453  1
  O  O415  1  0.002874  0.710606  0.316453  1
  O  O416  1  0.958879  0.622626  0.387552  1
  O  O417  1  0.663876  0.622460  0.387544  1
  O  O418  1  0.749430  0.749366  0.297615  1
  O  O419  1  0.855864  0.711609  0.308643  1
  O  O420  1  0.810908  0.621680  0.395374  1
  O  O421  1  0.653100  0.826460  0.319718  1
  O  O422  1  0.173493  0.826459  0.319718  1
  O  O423  1  0.013622  0.506769  0.384278  1
  O  O424  1  0.493248  0.506732  0.384266  1
  O  O425  1  0.493303  0.986431  0.384251  1
  O  O426  1  0.525559  0.762731  0.405789  1
  O  O427  1  0.237432  0.762769  0.405802  1
  O  O428  1  0.000000  0.749348  0.297615  1
  O  O429  1  0.141260  0.570553  0.298176  1
  O  O430  1  0.429429  0.570539  0.298177  1
  O  O431  1  0.429392  0.858673  0.298178  1
  O  O432  1  0.250655  0.000000  0.297611  1
  O  O433  1  0.749370  0.000000  0.297608  1
  O  O434  1  0.818630  0.909107  0.446434  1
  O  O435  1  0.091917  0.908994  0.446439  1
  O  O436  1  0.909926  0.818574  0.475103  1
  O  O437  1  0.922398  0.843391  0.447860  1
  O  O438  1  0.843562  0.921623  0.473668  1
  O  O439  1  0.079339  0.921599  0.473657  1
  O  O440  1  0.767931  0.747235  0.440156  1
  O  O441  1  0.980403  0.747217  0.440140  1
  O  O442  1  0.747587  0.979885  0.481397  1
  O  O443  1  0.020635  0.767313  0.481397  1
  O  O444  1  0.747860  0.767320  0.481392  1
  O  O445  1  0.233390  0.979779  0.481417  1
  O  O446  1  0.796052  0.795393  0.460768  1
  O  O447  1  -0.000000  0.795291  0.460766  1
  O  O448  1  0.096346  0.903954  0.406943  1
  O  O449  1  0.781039  0.990199  0.501376  1
  O  O450  1  0.009987  0.790343  0.501382  1
  O  O451  1  0.781153  0.790346  0.501379  1
  O  O452  1  0.209987  0.990200  0.501396  1
  O  O453  1  0.790737  0.780718  0.420176  1
  O  O454  1  0.990683  0.780761  0.420157  1
  O  O455  1  0.848439  0.923974  0.513293  1
  O  O456  1  0.076292  0.923989  0.513301  1
  O  O457  1  0.924346  0.848118  0.408254  1
  O  O458  1  0.561943  0.925141  0.411936  1
  O  O459  1  0.074933  0.636531  0.411947  1
  O  O460  1  0.363783  0.925341  0.411920  1
  O  O461  1  0.561877  0.636665  0.411953  1
  O  O462  1  0.636798  0.561734  0.509578  1
  O  O463  1  0.925415  0.561657  0.509582  1
  O  O464  1  0.669858  0.625523  0.425245  1
  O  O465  1  0.956334  0.625533  0.425225  1
  O  O466  1  0.625798  0.955736  0.496310  1
  O  O467  1  0.044211  0.669372  0.496318  1
  O  O468  1  0.625985  0.669473  0.496297  1
  O  O469  1  0.330854  0.955772  0.496347  1
  O  O470  1  0.666807  0.584116  0.406398  1
  O  O471  1  0.205818  0.000000  0.460774  1
  O  O472  1  0.477850  0.522511  0.504111  1
  O  O473  1  0.477934  0.954930  0.504147  1
  O  O474  1  0.045082  0.522262  0.504113  1
  O  O475  1  0.840540  0.680297  0.428496  1
  O  O476  1  0.680737  0.840027  0.493028  1
  O  O477  1  0.160223  0.839995  0.493068  1
  O  O478  1  0.904278  0.807835  0.514597  1
  O  O479  1  0.808196  0.903979  0.406974  1
  O  O480  1  0.584275  0.666735  0.515133  1
  O  O481  1  0.917393  0.583895  0.406391  1
  O  O482  1  0.795586  0.000000  0.460768  1
  O  O483  1  0.757629  0.515086  0.555200  1
  O  O484  1  0.646656  0.566062  0.548902  1
  O  O485  1  0.919607  0.566056  0.548909  1
  O  O486  1  0.899432  0.586162  0.590162  1
  O  O487  1  0.686826  0.586170  0.590162  1
  O  O488  1  0.666746  0.538152  0.569532  1
  O  O489  1  0.871519  0.538120  0.569532  1
  O  O490  1  0.762901  0.525362  0.515718  1
  O  O491  1  0.876275  0.552551  0.610146  1
  O  O492  1  0.676370  0.552560  0.610146  1
  O  O493  1  0.657136  0.542874  0.528922  1
  O  O494  1  0.886122  0.542895  0.528925  1
  O  O495  1  0.741917  0.969907  0.520723  1
  O  O496  1  0.030436  0.771473  0.520721  1
  O  O497  1  0.741721  0.771515  0.520721  1
  O  O498  1  0.228712  0.969767  0.520736  1
  O  O499  1  0.591936  0.696750  0.618346  1
  O  O500  1  0.303241  0.895047  0.618340  1
  O  O501  1  0.591851  0.894955  0.618348  1
  O  O502  1  0.104907  0.696730  0.618343  1
  O  O503  1  0.336351  0.958782  0.534013  1
  O  O504  1  0.622830  0.663802  0.533978  1
  O  O505  1  0.041343  0.663770  0.533994  1
  O  O506  1  0.622760  0.958702  0.534009  1
  O  O507  1  0.997174  0.707778  0.605078  1
  O  O508  1  0.710700  0.707789  0.605079  1
  O  O509  1  0.333700  0.917165  0.515183  1
  O  O510  1  0.082922  0.666457  0.515154  1
  O  O511  1  0.584462  0.917375  0.515159  1
  O  O512  1  0.189403  0.810688  0.526188  1
  O  O513  1  0.622046  0.810903  0.526179  1
  O  O514  1  0.144207  0.855778  0.612885  1
  O  O515  1  0.711665  0.855788  0.612884  1
  O  O516  1  0.826549  0.653009  0.601814  1
  O  O517  1  0.242447  0.484856  0.692631  1
  O  O518  1  0.100609  0.413726  0.657671  1
  O  O519  1  0.313249  0.413779  0.657670  1
  O  O520  1  0.353471  0.433930  0.698921  1
  O  O521  1  0.080477  0.433859  0.698931  1
  O  O522  1  0.128514  0.461758  0.678300  1
  O  O523  1  0.333356  0.461863  0.678297  1
  O  O524  1  0.343097  0.457072  0.718905  1
  O  O525  1  0.114124  0.457085  0.718911  1
  O  O526  1  0.123783  0.447334  0.637688  1
  O  O527  1  0.323680  0.447332  0.637686  1
  O  O528  1  0.408143  0.303148  0.629488  1
  O  O529  1  0.696835  0.104832  0.629483  1
  O  O530  1  0.408152  0.104826  0.629486  1
  O  O531  1  0.895144  0.303147  0.629487  1
  O  O532  1  0.258817  0.030173  0.727097  1
  O  O533  1  0.970093  0.228459  0.727112  1
  O  O534  1  0.258822  0.228460  0.727110  1
  O  O535  1  0.771900  0.030070  0.727115  1
  O  O536  1  0.002879  0.292102  0.642752  1
  O  O537  1  0.289367  0.292118  0.642755  1
  O  O538  1  0.663946  0.041262  0.713825  1
  O  O539  1  0.377419  0.336181  0.713836  1
  O  O540  1  0.958891  0.336173  0.713858  1
  O  O541  1  0.377389  0.041151  0.713810  1
  O  O542  1  0.855867  0.144095  0.634938  1
  O  O543  1  0.288392  0.144115  0.634944  1
  O  O544  1  0.811026  0.189074  0.721659  1
  O  O545  1  0.378544  0.189244  0.721635  1
  O  O546  1  0.173501  0.346879  0.646020  1
  O  O547  1  0.237412  0.474596  0.732114  1
  O  O548  1  0.666987  0.082585  0.732675  1
  O  O549  1  0.416433  0.082810  0.732635  1
  O  O550  1  0.416338  0.333488  0.732674  1
  O  O551  1  0.250654  0.250550  0.623916  1
  O  O552  1  -0.000000  0.250554  0.623914  1
  O  O553  1  0.091256  0.181152  0.772726  1
  O  O554  1  0.182649  0.090891  0.801400  1
  O  O555  1  0.909566  0.090928  0.801395  1
  O  O556  1  0.157790  0.078253  0.774178  1
  O  O557  1  0.921851  0.078352  0.774164  1
  O  O558  1  0.079005  0.156719  0.799970  1
  O  O559  1  0.253753  0.020225  0.766423  1
  O  O560  1  0.980606  0.232656  0.766436  1
  O  O561  1  0.253250  0.232572  0.766434  1
  O  O562  1  0.767604  0.020132  0.766443  1
  O  O563  1  0.233221  0.252767  0.807689  1
  O  O564  1  0.020715  0.252818  0.807675  1
  O  O565  1  -0.000000  0.204632  0.787056  1
  O  O566  1  0.205284  0.204598  0.787064  1
  O  O567  1  0.192461  0.096016  0.840892  1
  O  O568  1  0.210041  0.219246  0.827673  1
  O  O569  1  0.010078  0.219251  0.827658  1
  O  O570  1  0.219714  0.009737  0.746443  1
  O  O571  1  0.990720  0.209641  0.746451  1
  O  O572  1  0.219553  0.209595  0.746450  1
  O  O573  1  0.790742  0.009820  0.746465  1
  O  O574  1  0.076331  0.151872  0.839576  1
  O  O575  1  0.152203  0.075951  0.734538  1
  O  O576  1  0.924343  0.075998  0.734543  1
  O  O577  1  0.363636  0.438291  0.738247  1
  O  O578  1  0.074953  0.438249  0.738256  1
  O  O579  1  0.438522  0.074645  0.835904  1
  O  O580  1  0.925303  0.363298  0.835883  1
  O  O581  1  0.636860  0.074819  0.835900  1
  O  O582  1  0.438492  0.363444  0.835883  1
  O  O583  1  0.375071  0.044244  0.751476  1
  O  O584  1  0.956465  0.330529  0.751541  1
  O  O585  1  0.374752  0.330599  0.751511  1
  O  O586  1  0.669979  0.044290  0.751527  1
  O  O587  1  0.330871  0.374439  0.822607  1
  O  O588  1  0.044434  0.374466  0.822591  1
  O  O589  1  0.904334  0.096003  0.840866  1
  O  O590  1  0.096325  0.192101  0.733236  1
  O  O591  1  0.522705  0.477703  0.743717  1
  O  O592  1  0.522921  0.045057  0.743677  1
  O  O593  1  0.955232  0.477471  0.743724  1
  O  O594  1  0.320182  0.159979  0.754760  1
  O  O595  1  0.840656  0.159994  0.754814  1
  O  O596  1  0.160323  0.319691  0.819335  1
  O  O597  1  0.917426  0.333235  0.732706  1
  O  O598  1  0.082786  0.415872  0.841439  1
  O  O599  1  0.333591  0.416083  0.841440  1
  O  O600  1  0.434110  0.080498  0.875224  1
  O  O601  1  0.919762  0.353479  0.875211  1
  O  O602  1  0.646693  0.080432  0.875222  1
  O  O603  1  0.434016  0.353447  0.875205  1
  O  O604  1  0.457204  0.113962  0.855242  1
  O  O605  1  0.886241  0.343029  0.855232  1
  O  O606  1  0.657137  0.113928  0.855245  1
  O  O607  1  0.457225  0.342980  0.855226  1
  O  O608  1  0.590904  0.181360  0.843335  1
  O  O609  1  0.818778  0.409233  0.843321  1
  O  O610  1  0.590897  0.409227  0.843315  1
  O  O611  1  0.228712  0.258573  0.847012  1
  O  O612  1  0.030400  0.258438  0.847002  1
  O  O613  1  0.041501  0.377502  0.860292  1
  O  O614  1  0.336322  0.377347  0.860279  1
  O  O615  1  0.762910  0.237227  0.842045  1
  O  O616  1  0.474745  0.237196  0.842027  1
  O  O617  1  0.189329  0.378307  0.852460  1
  O  O618  1  0.986597  0.493229  0.863569  1
  O  O619  1  0.506934  0.493178  0.863551  1
  O  O620  1  0.506939  0.013527  0.863579  1
  O  O621  1  0.151476  0.575641  0.663967  1
  O  O622  1  0.424264  0.575720  0.663965  1
  O  O623  1  0.424283  0.848368  0.663958  1
  O  O624  1  0.515328  0.757564  0.692631  1
  O  O625  1  0.242443  0.757441  0.692626  1
  O  O626  1  0.254849  0.509639  0.665399  1
  O  O627  1  0.490379  0.745093  0.665400  1
  O  O628  1  0.254859  0.745022  0.665393  1
  O  O629  1  0.411881  0.823500  0.691191  1
  O  O630  1  0.176291  0.588072  0.691197  1
  O  O631  1  0.411889  0.588186  0.691198  1
  O  O632  1  0.586223  0.686703  0.657672  1
  O  O633  1  0.313257  0.899300  0.657665  1
  O  O634  1  0.586252  0.899348  0.657669  1
  O  O635  1  0.100614  0.686695  0.657669  1
  O  O636  1  0.566177  0.919536  0.698914  1
  O  O637  1  0.080465  0.646500  0.698927  1
  O  O638  1  0.353516  0.919421  0.698905  1
  O  O639  1  0.566183  0.646476  0.698925  1
  O  O640  1  0.538199  0.666588  0.678299  1
  O  O641  1  0.333367  0.871308  0.678289  1
  O  O642  1  0.538202  0.871411  0.678295  1
  O  O643  1  0.128522  0.666589  0.678297  1
  O  O644  1  0.707876  0.997092  0.642750  1
  O  O645  1  0.289358  0.997089  0.642752  1
  O  O646  1  0.543102  0.886044  0.718892  1
  O  O647  1  0.114097  0.656981  0.718906  1
  O  O648  1  0.343105  0.885937  0.718888  1
  O  O649  1  0.543087  0.656931  0.718905  1
  O  O650  1  0.552645  0.676273  0.637689  1
  O  O651  1  0.323652  0.876178  0.637682  1
  O  O652  1  0.552638  0.876183  0.637690  1
  O  O653  1  0.123771  0.676286  0.637685  1
  O  O654  1  0.409435  0.818606  0.730799  1
  O  O655  1  0.181549  0.590741  0.730819  1
  O  O656  1  0.409417  0.590721  0.730815  1
  O  O657  1  0.257420  0.514695  0.625771  1
  O  O658  1  0.485254  0.742521  0.625777  1
  O  O659  1  0.257382  0.742558  0.625767  1
  O  O660  1  0.895135  0.591848  0.629488  1
  O  O661  1  0.696824  0.591858  0.629487  1
  O  O662  1  0.771837  0.741548  0.727134  1
  O  O663  1  0.970027  0.741407  0.727120  1
  O  O664  1  0.707870  0.710614  0.642756  1
  O  O665  1  0.002874  0.710606  0.642755  1
  O  O666  1  0.958879  0.622626  0.713854  1
  O  O667  1  0.663876  0.622460  0.713846  1
  O  O668  1  0.749430  0.749366  0.623917  1
  O  O669  1  0.855864  0.711609  0.634945  1
  O  O670  1  0.810908  0.621680  0.721676  1
  O  O671  1  0.653100  0.826460  0.646020  1
  O  O672  1  0.173493  0.826459  0.646020  1
  O  O673  1  0.013622  0.506769  0.710580  1
  O  O674  1  0.493248  0.506732  0.710568  1
  O  O675  1  0.493303  0.986431  0.710554  1
  O  O676  1  0.525559  0.762731  0.732091  1
  O  O677  1  0.237432  0.762769  0.732104  1
  O  O678  1  -0.000000  0.749348  0.623917  1
  O  O679  1  0.141260  0.570553  0.624478  1
  O  O680  1  0.429429  0.570539  0.624479  1
  O  O681  1  0.429392  0.858673  0.624480  1
  O  O682  1  0.250655  0.000000  0.623913  1
  O  O683  1  0.749370  -0.000000  0.623910  1
  O  O684  1  0.818630  0.909107  0.772736  1
  O  O685  1  0.091917  0.908994  0.772741  1
  O  O686  1  0.909926  0.818574  0.801406  1
  O  O687  1  0.922398  0.843391  0.774162  1
  O  O688  1  0.843562  0.921623  0.799970  1
  O  O689  1  0.079339  0.921599  0.799959  1
  O  O690  1  0.767931  0.747235  0.766458  1
  O  O691  1  0.980403  0.747217  0.766442  1
  O  O692  1  0.747587  0.979885  0.807699  1
  O  O693  1  0.020635  0.767313  0.807700  1
  O  O694  1  0.747860  0.767320  0.807694  1
  O  O695  1  0.233390  0.979779  0.807720  1
  O  O696  1  0.796052  0.795393  0.787070  1
  O  O697  1  -0.000000  0.795291  0.787068  1
  O  O698  1  0.096346  0.903954  0.733245  1
  O  O699  1  0.781039  0.990199  0.827678  1
  O  O700  1  0.009987  0.790343  0.827684  1
  O  O701  1  0.781153  0.790346  0.827681  1
  O  O702  1  0.209987  0.990200  0.827698  1
  O  O703  1  0.790737  0.780718  0.746478  1
  O  O704  1  0.990683  0.780761  0.746459  1
  O  O705  1  0.848439  0.923974  0.839595  1
  O  O706  1  0.076292  0.923989  0.839603  1
  O  O707  1  0.924346  0.848118  0.734556  1
  O  O708  1  0.561943  0.925141  0.738238  1
  O  O709  1  0.074933  0.636531  0.738249  1
  O  O710  1  0.363783  0.925341  0.738222  1
  O  O711  1  0.561877  0.636665  0.738255  1
  O  O712  1  0.636798  0.561734  0.835880  1
  O  O713  1  0.925415  0.561657  0.835884  1
  O  O714  1  0.669858  0.625523  0.751547  1
  O  O715  1  0.956334  0.625533  0.751527  1
  O  O716  1  0.625798  0.955736  0.822612  1
  O  O717  1  0.044211  0.669372  0.822620  1
  O  O718  1  0.625985  0.669473  0.822599  1
  O  O719  1  0.330854  0.955772  0.822649  1
  O  O720  1  0.666807  0.584116  0.732700  1
  O  O721  1  0.205818  0.000000  0.787076  1
  O  O722  1  0.477850  0.522511  0.830413  1
  O  O723  1  0.477934  0.954930  0.830449  1
  O  O724  1  0.045082  0.522262  0.830415  1
  O  O725  1  0.840540  0.680297  0.754799  1
  O  O726  1  0.680737  0.840027  0.819330  1
  O  O727  1  0.160223  0.839995  0.819370  1
  O  O728  1  0.904278  0.807835  0.840899  1
  O  O729  1  0.808196  0.903979  0.733276  1
  O  O730  1  0.584275  0.666735  0.841435  1
  O  O731  1  0.917393  0.583895  0.732694  1
  O  O732  1  0.795586  0.000000  0.787070  1
  O  O733  1  0.646656  0.566062  0.875204  1
  O  O734  1  0.919607  0.566056  0.875211  1
  O  O735  1  0.762901  0.525362  0.842020  1
  O  O736  1  0.657136  0.542874  0.855224  1
  O  O737  1  0.886122  0.542895  0.855227  1
  O  O738  1  0.741917  0.969907  0.847025  1
  O  O739  1  0.030436  0.771473  0.847023  1
  O  O740  1  0.741721  0.771515  0.847023  1
  O  O741  1  0.228712  0.969767  0.847039  1
  O  O742  1  0.336351  0.958782  0.860315  1
  O  O743  1  0.622830  0.663802  0.860281  1
  O  O744  1  0.041343  0.663770  0.860296  1
  O  O745  1  0.622760  0.958702  0.860312  1
  O  O746  1  0.333700  0.917165  0.841486  1
  O  O747  1  0.082922  0.666457  0.841456  1
  O  O748  1  0.584462  0.917375  0.841461  1
  O  O749  1  0.189403  0.810688  0.852490  1
  O  O750  1  0.622046  0.810903  0.852481  1
  Si  Si751  1  0.154807  0.488644  0.077652  1
  Si  Si752  1  0.334055  0.488630  0.077650  1
  Si  Si753  1  0.391162  0.430541  0.057570  1
  Si  Si754  1  0.039462  0.430530  0.057583  1
  Si  Si755  1  0.731237  0.089985  0.070716  1
  Si  Si756  1  0.359389  0.269099  0.070725  1
  Si  Si757  1  0.910012  0.268983  0.070743  1
  Si  Si758  1  0.359345  0.090191  0.070699  1
  Si  Si759  1  0.822261  0.000000  0.082517  1
  Si  Si760  1  0.821457  0.000000  0.122470  1
  Si  Si761  1  0.178966  0.000000  0.082496  1
  Si  Si762  1  -0.000000  0.178096  0.082496  1
  Si  Si763  1  0.178913  0.178039  0.082498  1
  Si  Si764  1  -0.000000  0.178611  0.122460  1
  Si  Si765  1  0.179552  0.178529  0.122468  1
  Si  Si766  1  0.179427  0.178883  0.146456  1
  Si  Si767  1  -0.000000  0.178917  0.146448  1
  Si  Si768  1  0.423926  0.025946  0.089381  1
  Si  Si769  1  0.974419  0.397614  0.089445  1
  Si  Si770  1  0.423713  0.397801  0.089421  1
  Si  Si771  1  0.602712  0.025742  0.089425  1
  Si  Si772  1  0.397986  0.423486  0.179494  1
  Si  Si773  1  0.025873  0.423208  0.179481  1
  Si  Si774  1  0.294245  0.236147  0.102566  1
  Si  Si775  1  0.764299  0.057964  0.102591  1
  Si  Si776  1  0.942761  0.236153  0.102592  1
  Si  Si777  1  0.294469  0.057934  0.102552  1
  Si  Si778  1  0.058261  0.293896  0.166328  1
  Si  Si779  1  0.236541  0.293826  0.166337  1
  Si  Si780  1  0.178430  0.178623  0.186417  1
  Si  Si781  1  -0.000000  0.178602  0.186399  1
  Si  Si782  1  0.180055  0.000000  0.122475  1
  Si  Si783  1  0.488805  0.333866  0.191276  1
  Si  Si784  1  0.487996  0.154365  0.231245  1
  Si  Si785  1  0.845905  0.333532  0.231235  1
  Si  Si786  1  0.666672  0.154326  0.231241  1
  Si  Si787  1  0.487867  0.333521  0.231238  1
  Si  Si788  1  0.487683  0.333163  0.255225  1
  Si  Si789  1  0.666976  0.154505  0.255227  1
  Si  Si790  1  0.487760  0.154508  0.255231  1
  Si  Si791  1  0.845667  0.333203  0.255222  1
  Si  Si792  1  0.090254  0.359031  0.198188  1
  Si  Si793  1  0.269203  0.359155  0.198181  1
  Si  Si794  1  0.243254  0.307462  0.288263  1
  Si  Si795  1  0.064384  0.307482  0.288264  1
  Si  Si796  1  0.430682  0.391108  0.211343  1
  Si  Si797  1  0.608994  0.039302  0.211367  1
  Si  Si798  1  0.430716  0.039387  0.211369  1
  Si  Si799  1  0.960863  0.391182  0.211354  1
  Si  Si800  1  0.372832  0.097183  0.275113  1
  Si  Si801  1  0.902892  0.275614  0.275113  1
  Si  Si802  1  0.724623  0.097244  0.275110  1
  Si  Si803  1  0.372837  0.275509  0.275114  1
  Si  Si804  1  0.488056  0.332668  0.295193  1
  Si  Si805  1  0.667328  0.155220  0.295186  1
  Si  Si806  1  0.488069  0.155221  0.295191  1
  Si  Si807  1  0.844763  0.332689  0.295193  1
  Si  Si808  1  0.488804  0.154603  0.191289  1
  Si  Si809  1  0.845523  0.333885  0.191286  1
  Si  Si810  1  0.666264  0.154629  0.191297  1
  Si  Si811  1  0.909936  0.640824  0.070744  1
  Si  Si812  1  0.731106  0.640950  0.070742  1
  Si  Si813  1  0.569561  0.608779  0.057574  1
  Si  Si814  1  0.391204  0.960546  0.057551  1
  Si  Si815  1  0.569583  0.960660  0.057560  1
  Si  Si816  1  0.039447  0.608846  0.057580  1
  Si  Si817  1  0.511528  0.845340  0.077631  1
  Si  Si818  1  0.154818  0.666102  0.077647  1
  Si  Si819  1  0.334087  0.845353  0.077631  1
  Si  Si820  1  0.511509  0.666070  0.077643  1
  Si  Si821  1  -0.000000  0.821361  0.082506  1
  Si  Si822  1  0.179755  -0.000000  0.146461  1
  Si  Si823  1  0.821676  0.821872  0.186429  1
  Si  Si824  1  0.821946  0.821165  0.122471  1
  Si  Si825  1  0.000000  0.821108  0.122469  1
  Si  Si826  1  0.822259  0.821387  0.082527  1
  Si  Si827  1  -0.000000  0.821290  0.146457  1
  Si  Si828  1  0.821687  0.821315  0.146461  1
  Si  Si829  1  0.178391  0.000000  0.186437  1
  Si  Si830  1  0.602548  0.576769  0.089449  1
  Si  Si831  1  0.974387  0.576490  0.089430  1
  Si  Si832  1  0.577026  0.974226  0.179504  1
  Si  Si833  1  0.025980  0.602158  0.179501  1
  Si  Si834  1  0.576888  0.602370  0.179486  1
  Si  Si835  1  0.398047  0.974050  0.179532  1
  Si  Si836  1  0.942629  0.706168  0.102586  1
  Si  Si837  1  0.764279  0.706089  0.102599  1
  Si  Si838  1  0.706641  0.763844  0.166337  1
  Si  Si839  1  0.236523  0.942046  0.166375  1
  Si  Si840  1  0.058118  0.763804  0.166357  1
  Si  Si841  1  0.706456  0.942073  0.166343  1
  Si  Si842  1  0.821724  0.000000  0.186418  1
  Si  Si843  1  -0.000000  0.821896  0.186429  1
  Si  Si844  1  0.821397  0.000000  0.146459  1
  Si  Si845  1  0.960708  0.569425  0.211355  1
  Si  Si846  1  0.667292  0.511938  0.295193  1
  Si  Si847  1  0.844741  0.511932  0.295193  1
  Si  Si848  1  0.902794  0.627177  0.275116  1
  Si  Si849  1  0.845508  0.511325  0.191275  1
  Si  Si850  1  0.666254  0.511323  0.191274  1
  Si  Si851  1  0.724476  0.627186  0.275116  1
  Si  Si852  1  0.609015  0.569423  0.211343  1
  Si  Si853  1  0.666573  0.512201  0.231237  1
  Si  Si854  1  0.845778  0.512164  0.231237  1
  Si  Si855  1  0.845582  0.512377  0.255223  1
  Si  Si856  1  0.666896  0.512385  0.255223  1
  Si  Si857  1  0.269249  0.909743  0.198217  1
  Si  Si858  1  0.641130  0.730998  0.198188  1
  Si  Si859  1  0.090381  0.730844  0.198198  1
  Si  Si860  1  0.641327  0.909983  0.198212  1
  Si  Si861  1  0.064349  0.756750  0.288263  1
  Si  Si862  1  0.692442  0.935613  0.288257  1
  Si  Si863  1  0.243242  0.935628  0.288261  1
  Si  Si864  1  0.692510  0.756769  0.288265  1
  Si  Si865  1  0.154807  0.488644  0.403954  1
  Si  Si866  1  0.334055  0.488630  0.403952  1
  Si  Si867  1  0.391162  0.430541  0.383872  1
  Si  Si868  1  0.039462  0.430530  0.383885  1
  Si  Si869  1  0.332770  0.487949  0.300035  1
  Si  Si870  1  0.155328  0.487965  0.300037  1
  Si  Si871  1  0.097256  0.372705  0.320113  1
  Si  Si872  1  0.275584  0.372718  0.320114  1
  Si  Si873  1  0.154453  0.487522  0.340005  1
  Si  Si874  1  0.333175  0.487589  0.340001  1
  Si  Si875  1  0.333538  0.487821  0.363988  1
  Si  Si876  1  0.154257  0.487707  0.363992  1
  Si  Si877  1  0.935715  0.243137  0.306961  1
  Si  Si878  1  0.307572  0.064264  0.306961  1
  Si  Si879  1  0.756829  0.064243  0.306958  1
  Si  Si880  1  0.307567  0.243148  0.306965  1
  Si  Si881  1  0.731237  0.089985  0.397018  1
  Si  Si882  1  0.359389  0.269099  0.397027  1
  Si  Si883  1  0.910012  0.268983  0.397045  1
  Si  Si884  1  0.359345  0.090191  0.397001  1
  Si  Si885  1  0.822261  0.000000  0.408819  1
  Si  Si886  1  0.821457  0.000000  0.448772  1
  Si  Si887  1  0.178966  0.000000  0.408798  1
  Si  Si888  1  -0.000000  0.178096  0.408798  1
  Si  Si889  1  0.178913  0.178039  0.408800  1
  Si  Si890  1  -0.000000  0.178611  0.448762  1
  Si  Si891  1  0.179552  0.178529  0.448771  1
  Si  Si892  1  0.179427  0.178883  0.472758  1
  Si  Si893  1  -0.000000  0.178917  0.472750  1
  Si  Si894  1  0.423926  0.025946  0.415683  1
  Si  Si895  1  0.974419  0.397614  0.415747  1
  Si  Si896  1  0.423713  0.397801  0.415723  1
  Si  Si897  1  0.602712  0.025742  0.415727  1
  Si  Si898  1  0.397986  0.423486  0.505796  1
  Si  Si899  1  0.025873  0.423208  0.505783  1
  Si  Si900  1  0.294245  0.236147  0.428868  1
  Si  Si901  1  0.764299  0.057964  0.428893  1
  Si  Si902  1  0.942761  0.236153  0.428894  1
  Si  Si903  1  0.294469  0.057934  0.428854  1
  Si  Si904  1  0.058261  0.293896  0.492630  1
  Si  Si905  1  0.236541  0.293826  0.492640  1
  Si  Si906  1  0.178430  0.178623  0.512720  1
  Si  Si907  1  0.000000  0.178602  0.512702  1
  Si  Si908  1  0.180055  0.000000  0.448777  1
  Si  Si909  1  0.488805  0.333866  0.517578  1
  Si  Si910  1  0.487996  0.154365  0.557548  1
  Si  Si911  1  0.845905  0.333532  0.557537  1
  Si  Si912  1  0.666672  0.154326  0.557543  1
  Si  Si913  1  0.487867  0.333521  0.557540  1
  Si  Si914  1  0.487683  0.333163  0.581527  1
  Si  Si915  1  0.666976  0.154505  0.581529  1
  Si  Si916  1  0.487760  0.154508  0.581533  1
  Si  Si917  1  0.845667  0.333203  0.581524  1
  Si  Si918  1  0.090254  0.359031  0.524490  1
  Si  Si919  1  0.269203  0.359155  0.524483  1
  Si  Si920  1  0.243254  0.307462  0.614565  1
  Si  Si921  1  0.064384  0.307482  0.614566  1
  Si  Si922  1  0.430682  0.391108  0.537645  1
  Si  Si923  1  0.608994  0.039302  0.537670  1
  Si  Si924  1  0.430716  0.039387  0.537671  1
  Si  Si925  1  0.960863  0.391182  0.537657  1
  Si  Si926  1  0.372832  0.097183  0.601415  1
  Si  Si927  1  0.902892  0.275614  0.601415  1
  Si  Si928  1  0.724623  0.097244  0.601412  1
  Si  Si929  1  0.372837  0.275509  0.601416  1
  Si  Si930  1  0.488056  0.332668  0.621495  1
  Si  Si931  1  0.667328  0.155220  0.621488  1
  Si  Si932  1  0.488069  0.155221  0.621493  1
  Si  Si933  1  0.844763  0.332689  0.621495  1
  Si  Si934  1  0.488804  0.154603  0.517592  1
  Si  Si935  1  0.845523  0.333885  0.517588  1
  Si  Si936  1  0.666264  0.154629  0.517599  1
  Si  Si937  1  0.512428  0.666771  0.340005  1
  Si  Si938  1  0.333188  0.845402  0.339993  1
  Si  Si939  1  0.512440  0.845472  0.340000  1
  Si  Si940  1  0.154463  0.666744  0.340002  1
  Si  Si941  1  0.512296  0.845652  0.363986  1
  Si  Si942  1  0.154248  0.666395  0.363989  1
  Si  Si943  1  0.333547  0.845541  0.363979  1
  Si  Si944  1  0.512304  0.666439  0.363992  1
  Si  Si945  1  0.756836  0.692434  0.306963  1
  Si  Si946  1  0.935713  0.692425  0.306964  1
  Si  Si947  1  0.909936  0.640824  0.397046  1
  Si  Si948  1  0.731106  0.640950  0.397044  1
  Si  Si949  1  0.627287  0.902717  0.320112  1
  Si  Si950  1  0.097252  0.724378  0.320113  1
  Si  Si951  1  0.275570  0.902704  0.320110  1
  Si  Si952  1  0.627263  0.724380  0.320115  1
  Si  Si953  1  0.569561  0.608779  0.383876  1
  Si  Si954  1  0.391204  0.960546  0.383853  1
  Si  Si955  1  0.569583  0.960660  0.383862  1
  Si  Si956  1  0.039447  0.608846  0.383882  1
  Si  Si957  1  0.511528  0.845340  0.403933  1
  Si  Si958  1  0.154818  0.666102  0.403949  1
  Si  Si959  1  0.334087  0.845353  0.403933  1
  Si  Si960  1  0.511509  0.666070  0.403945  1
  Si  Si961  1  0.512024  0.667188  0.300038  1
  Si  Si962  1  0.332746  0.844646  0.300032  1
  Si  Si963  1  0.511981  0.844612  0.300041  1
  Si  Si964  1  0.155293  0.667199  0.300034  1
  Si  Si965  1  -0.000000  0.821361  0.408808  1
  Si  Si966  1  0.179755  -0.000000  0.472764  1
  Si  Si967  1  0.821676  0.821872  0.512732  1
  Si  Si968  1  0.821946  0.821165  0.448773  1
  Si  Si969  1  -0.000000  0.821108  0.448771  1
  Si  Si970  1  0.822259  0.821387  0.408829  1
  Si  Si971  1  -0.000000  0.821290  0.472759  1
  Si  Si972  1  0.821687  0.821315  0.472763  1
  Si  Si973  1  0.178391  0.000000  0.512739  1
  Si  Si974  1  0.602548  0.576769  0.415751  1
  Si  Si975  1  0.974387  0.576490  0.415732  1
  Si  Si976  1  0.577026  0.974226  0.505806  1
  Si  Si977  1  0.025980  0.602158  0.505803  1
  Si  Si978  1  0.576888  0.602370  0.505789  1
  Si  Si979  1  0.398047  0.974050  0.505834  1
  Si  Si980  1  0.942629  0.706168  0.428888  1
  Si  Si981  1  0.764279  0.706089  0.428901  1
  Si  Si982  1  0.706641  0.763844  0.492639  1
  Si  Si983  1  0.236523  0.942046  0.492677  1
  Si  Si984  1  0.058118  0.763804  0.492659  1
  Si  Si985  1  0.706456  0.942073  0.492645  1
  Si  Si986  1  0.821724  0.000000  0.512720  1
  Si  Si987  1  -0.000000  0.821896  0.512732  1
  Si  Si988  1  0.821397  0.000000  0.472761  1
  Si  Si989  1  0.960708  0.569425  0.537658  1
  Si  Si990  1  0.667292  0.511938  0.621495  1
  Si  Si991  1  0.844741  0.511932  0.621495  1
  Si  Si992  1  0.902794  0.627177  0.601418  1
  Si  Si993  1  0.845508  0.511325  0.517577  1
  Si  Si994  1  0.666254  0.511323  0.517576  1
  Si  Si995  1  0.724476  0.627186  0.601418  1
  Si  Si996  1  0.609015  0.569423  0.537645  1
  Si  Si997  1  0.666573  0.512201  0.557539  1
  Si  Si998  1  0.845778  0.512164  0.557539  1
  Si  Si999  1  0.845582  0.512377  0.581526  1
  Si  Si1000  1  0.666896  0.512385  0.581526  1
  Si  Si1001  1  0.269249  0.909743  0.524519  1
  Si  Si1002  1  0.641130  0.730998  0.524490  1
  Si  Si1003  1  0.090381  0.730844  0.524500  1
  Si  Si1004  1  0.641327  0.909983  0.524514  1
  Si  Si1005  1  0.064349  0.756750  0.614566  1
  Si  Si1006  1  0.692442  0.935613  0.614559  1
  Si  Si1007  1  0.243242  0.935628  0.614563  1
  Si  Si1008  1  0.692510  0.756769  0.614567  1
  Si  Si1009  1  0.154807  0.488644  0.730256  1
  Si  Si1010  1  0.334055  0.488630  0.730254  1
  Si  Si1011  1  0.391162  0.430541  0.710174  1
  Si  Si1012  1  0.039462  0.430530  0.710187  1
  Si  Si1013  1  0.332770  0.487949  0.626338  1
  Si  Si1014  1  0.155328  0.487965  0.626339  1
  Si  Si1015  1  0.097256  0.372705  0.646415  1
  Si  Si1016  1  0.275584  0.372718  0.646416  1
  Si  Si1017  1  0.154453  0.487522  0.666307  1
  Si  Si1018  1  0.333175  0.487589  0.666303  1
  Si  Si1019  1  0.333538  0.487821  0.690290  1
  Si  Si1020  1  0.154257  0.487707  0.690294  1
  Si  Si1021  1  0.935715  0.243137  0.633263  1
  Si  Si1022  1  0.307572  0.064264  0.633263  1
  Si  Si1023  1  0.756829  0.064243  0.633260  1
  Si  Si1024  1  0.307567  0.243148  0.633267  1
  Si  Si1025  1  0.731237  0.089985  0.723320  1
  Si  Si1026  1  0.359389  0.269099  0.723329  1
  Si  Si1027  1  0.910012  0.268983  0.723347  1
  Si  Si1028  1  0.359345  0.090191  0.723303  1
  Si  Si1029  1  0.822261  0.000000  0.735121  1
  Si  Si1030  1  0.821457  0.000000  0.775075  1
  Si  Si1031  1  0.178966  0.000000  0.735100  1
  Si  Si1032  1  -0.000000  0.178096  0.735100  1
  Si  Si1033  1  0.178913  0.178039  0.735103  1
  Si  Si1034  1  -0.000000  0.178611  0.775064  1
  Si  Si1035  1  0.179552  0.178529  0.775073  1
  Si  Si1036  1  0.179427  0.178883  0.799060  1
  Si  Si1037  1  -0.000000  0.178917  0.799053  1
  Si  Si1038  1  0.423926  0.025946  0.741985  1
  Si  Si1039  1  0.974419  0.397614  0.742049  1
  Si  Si1040  1  0.423713  0.397801  0.742025  1
  Si  Si1041  1  0.602712  0.025742  0.742029  1
  Si  Si1042  1  0.397986  0.423486  0.832098  1
  Si  Si1043  1  0.025873  0.423208  0.832085  1
  Si  Si1044  1  0.294245  0.236147  0.755171  1
  Si  Si1045  1  0.764299  0.057964  0.755195  1
  Si  Si1046  1  0.942761  0.236153  0.755196  1
  Si  Si1047  1  0.294469  0.057934  0.755156  1
  Si  Si1048  1  0.058261  0.293896  0.818932  1
  Si  Si1049  1  0.236541  0.293826  0.818942  1
  Si  Si1050  1  0.178430  0.178623  0.839022  1
  Si  Si1051  1  -0.000000  0.178602  0.839004  1
  Si  Si1052  1  0.180055  0.000000  0.775079  1
  Si  Si1053  1  0.488805  0.333866  0.843880  1
  Si  Si1054  1  0.090254  0.359031  0.850792  1
  Si  Si1055  1  0.269203  0.359155  0.850785  1
  Si  Si1056  1  0.430682  0.391108  0.863947  1
  Si  Si1057  1  0.608994  0.039302  0.863972  1
  Si  Si1058  1  0.430716  0.039387  0.863973  1
  Si  Si1059  1  0.960863  0.391182  0.863959  1
  Si  Si1060  1  0.488804  0.154603  0.843894  1
  Si  Si1061  1  0.845523  0.333885  0.843890  1
  Si  Si1062  1  0.666264  0.154629  0.843902  1
  Si  Si1063  1  0.512428  0.666771  0.666307  1
  Si  Si1064  1  0.333188  0.845402  0.666295  1
  Si  Si1065  1  0.512440  0.845472  0.666302  1
  Si  Si1066  1  0.154463  0.666744  0.666304  1
  Si  Si1067  1  0.512296  0.845652  0.690288  1
  Si  Si1068  1  0.154248  0.666395  0.690291  1
  Si  Si1069  1  0.333547  0.845541  0.690281  1
  Si  Si1070  1  0.512304  0.666439  0.690294  1
  Si  Si1071  1  0.756836  0.692434  0.633265  1
  Si  Si1072  1  0.935713  0.692425  0.633266  1
  Si  Si1073  1  0.909936  0.640824  0.723348  1
  Si  Si1074  1  0.731106  0.640950  0.723346  1
  Si  Si1075  1  0.627287  0.902717  0.646414  1
  Si  Si1076  1  0.097252  0.724378  0.646415  1
  Si  Si1077  1  0.275570  0.902704  0.646412  1
  Si  Si1078  1  0.627263  0.724380  0.646417  1
  Si  Si1079  1  0.569561  0.608779  0.710178  1
  Si  Si1080  1  0.391204  0.960546  0.710155  1
  Si  Si1081  1  0.569583  0.960660  0.710164  1
  Si  Si1082  1  0.039447  0.608846  0.710185  1
  Si  Si1083  1  0.511528  0.845340  0.730235  1
  Si  Si1084  1  0.154818  0.666102  0.730251  1
  Si  Si1085  1  0.334087  0.845353  0.730235  1
  Si  Si1086  1  0.511509  0.666070  0.730247  1
  Si  Si1087  1  0.512024  0.667188  0.626340  1
  Si  Si1088  1  0.332746  0.844646  0.626334  1
  Si  Si1089  1  0.511981  0.844612  0.626343  1
  Si  Si1090  1  0.155293  0.667199  0.626336  1
  Si  Si1091  1  0.000000  0.821361  0.735110  1
  Si  Si1092  1  0.179755  0.000000  0.799066  1
  Si  Si1093  1  0.821676  0.821872  0.839034  1
  Si  Si1094  1  0.821946  0.821165  0.775076  1
  Si  Si1095  1  0.000000  0.821108  0.775073  1
  Si  Si1096  1  0.822259  0.821387  0.735131  1
  Si  Si1097  1  -0.000000  0.821290  0.799061  1
  Si  Si1098  1  0.821687  0.821315  0.799065  1
  Si  Si1099  1  0.178391  0.000000  0.839041  1
  Si  Si1100  1  0.602548  0.576769  0.742053  1
  Si  Si1101  1  0.974387  0.576490  0.742035  1
  Si  Si1102  1  0.577026  0.974226  0.832108  1
  Si  Si1103  1  0.025980  0.602158  0.832105  1
  Si  Si1104  1  0.576888  0.602370  0.832091  1
  Si  Si1105  1  0.398047  0.974050  0.832136  1
  Si  Si1106  1  0.942629  0.706168  0.755190  1
  Si  Si1107  1  0.764279  0.706089  0.755203  1
  Si  Si1108  1  0.706641  0.763844  0.818941  1
  Si  Si1109  1  0.236523  0.942046  0.818979  1
  Si  Si1110  1  0.058118  0.763804  0.818962  1
  Si  Si1111  1  0.706456  0.942073  0.818947  1
  Si  Si1112  1  0.821724  0.000000  0.839022  1
  Si  Si1113  1  -0.000000  0.821896  0.839034  1
  Si  Si1114  1  0.821397  -0.000000  0.799063  1
  Si  Si1115  1  0.960708  0.569425  0.863960  1
  Si  Si1116  1  0.845508  0.511325  0.843879  1
  Si  Si1117  1  0.666254  0.511323  0.843878  1
  Si  Si1118  1  0.609015  0.569423  0.863947  1
  Si  Si1119  1  0.269249  0.909743  0.850821  1
  Si  Si1120  1  0.641130  0.730998  0.850792  1
  Si  Si1121  1  0.090381  0.730844  0.850802  1
  Si  Si1122  1  0.641327  0.909983  0.850816  1
  H  H1123  1  0.353471  0.433930  0.039254  1
  H  H1124  1  0.080477  0.433859  0.039264  1
  H  H1125  1  0.566177  0.919536  0.039247  1
  H  H1126  1  0.080465  0.646500  0.039260  1
  H  H1127  1  0.353516  0.919421  0.039238  1
  H  H1128  1  0.566183  0.646476  0.039258  1
  H  H1129  1  0.434110  0.080498  0.882286  1
  H  H1130  1  0.919762  0.353479  0.882274  1
  H  H1131  1  0.646693  0.080432  0.882285  1
  H  H1132  1  0.434016  0.353447  0.882267  1
  H  H1133  1  0.646656  0.566062  0.882267  1
  H  H1134  1  0.919607  0.566056  0.882274  1
