# generated using pymatgen
data_Si24H2O49
_symmetry_space_group_name_H-M   'P 1'
_cell_length_a   27.63734077
_cell_length_b   26.13931827
_cell_length_c   85.53559361
_cell_angle_alpha   45.00033254
_cell_angle_beta   90.00000000
_cell_angle_gamma   90.00000000
_symmetry_Int_Tables_number   1
_chemical_formula_structural   Si24H2O49
_chemical_formula_sum   'Si384 H32 O784'
_cell_volume   43694.312122
_cell_formula_units_Z   16
loop_
 _symmetry_equiv_pos_site_id
 _symmetry_equiv_pos_as_xyz
  1  'x, y, z'
loop_
 _atom_site_type_symbol
 _atom_site_label
 _atom_site_symmetry_multiplicity
 _atom_site_fract_x
 _atom_site_fract_y
 _atom_site_fract_z
 _atom_site_occupancy
  O  O1  1  0.935664  0.632786  0.093204  1
  O  O2  1  0.435667  0.867276  0.093200  1
  O  O3  1  0.251687  0.863204  0.093190  1
  O  O4  1  0.248251  0.636922  0.093191  1
  O  O5  1  0.064279  0.632814  0.093195  1
  O  O6  1  0.564279  0.132782  0.093205  1
  O  O7  1  0.435665  0.132801  0.093196  1
  O  O8  1  0.251689  0.136919  0.093191  1
  O  O9  1  0.248263  0.363206  0.093190  1
  O  O10  1  0.064280  0.367287  0.093198  1
  O  O11  1  0.812361  0.405167  0.164551  1
  O  O12  1  0.812346  0.735308  0.278948  1
  O  O13  1  0.812351  0.594856  0.123561  1
  O  O14  1  0.812361  0.264709  0.164551  1
  O  O15  1  0.687608  0.094858  0.237959  1
  O  O16  1  0.687595  0.764707  0.123561  1
  O  O17  1  0.687599  0.905171  0.278949  1
  O  O18  1  0.687608  0.235308  0.237958  1
  O  O19  1  0.723679  0.404042  0.171481  1
  O  O20  1  0.723664  0.766255  0.272504  1
  O  O21  1  0.723669  0.595972  0.130007  1
  O  O22  1  0.723677  0.233765  0.171481  1
  O  O23  1  0.776290  0.095978  0.231029  1
  O  O24  1  0.776279  0.733765  0.130006  1
  O  O25  1  0.776279  0.904045  0.272504  1
  O  O26  1  0.776292  0.266256  0.231029  1
  O  O27  1  0.757211  0.500007  0.132401  1
  O  O28  1  0.742752  -0.000000  0.270110  1
  O  O29  1  0.751703  0.363148  0.152359  1
  O  O30  1  0.751689  0.636867  0.093211  1
  O  O31  1  0.748270  0.136871  0.250152  1
  O  O32  1  0.748257  0.863150  0.093212  1
  O  O33  1  0.904731  0.400316  0.171074  1
  O  O34  1  0.904717  0.760670  0.274516  1
  O  O35  1  0.904721  0.599724  0.127984  1
  O  O36  1  0.904732  0.239361  0.171077  1
  O  O37  1  0.935668  0.367255  0.150582  1
  O  O38  1  0.935664  0.632786  0.309291  1
  O  O39  1  0.939053  0.500022  0.132511  1
  O  O40  1  -0.000000  0.723560  0.281091  1
  O  O41  1  0.939060  0.318106  0.132516  1
  O  O42  1  0.851672  0.500015  0.160946  1
  O  O43  1  0.851653  0.813480  0.241561  1
  O  O44  1  0.836395  0.137343  0.199571  1
  O  O45  1  0.836387  0.629559  0.143584  1
  O  O46  1  0.836380  0.862675  0.258924  1
  O  O47  1  0.836398  0.370468  0.199571  1
  O  O48  1  0.805679  0.000000  0.232129  1
  O  O49  1  0.694278  0.500007  0.170381  1
  O  O50  1  0.694261  0.857132  0.232130  1
  O  O51  1  0.749986  0.395799  0.201255  1
  O  O52  1  0.749970  0.895801  0.246292  1
  O  O53  1  0.749976  0.604222  0.156217  1
  O  O54  1  0.749981  0.104223  0.201254  1
  O  O55  1  0.939056  0.681941  0.269983  1
  O  O56  1  0.757195  0.681372  0.270108  1
  O  O57  1  0.851672  0.186544  0.160945  1
  O  O58  1  0.694271  0.142892  0.170380  1
  O  O59  1  0.757211  0.318648  0.132401  1
  O  O60  1  -0.000000  0.593060  0.121397  1
  O  O61  1  -0.000000  0.407009  0.161600  1
  O  O62  1  0.000000  0.276510  0.161605  1
  O  O63  1  0.595236  0.099722  0.231430  1
  O  O64  1  0.595224  0.739361  0.127987  1
  O  O65  1  0.595227  0.900316  0.274519  1
  O  O66  1  0.595235  0.260664  0.231428  1
  O  O67  1  0.404738  0.099744  0.231417  1
  O  O68  1  0.404713  0.739397  0.127974  1
  O  O69  1  0.404725  0.900339  0.274507  1
  O  O70  1  0.404728  0.260702  0.231413  1
  O  O71  1  0.564283  0.132781  0.251920  1
  O  O72  1  0.564280  0.867253  0.093209  1
  O  O73  1  0.435668  0.132807  0.251909  1
  O  O74  1  0.435667  0.867276  0.309287  1
  O  O75  1  0.560894  -0.000000  0.269989  1
  O  O76  1  0.439058  -0.000000  0.269980  1
  O  O77  1  0.499983  0.093054  0.240892  1
  O  O78  1  0.499971  0.776504  0.121400  1
  O  O79  1  0.499975  0.907003  0.281094  1
  O  O80  1  0.499978  0.223554  0.240886  1
  O  O81  1  0.648290  -0.000000  0.241562  1
  O  O82  1  0.351676  0.000000  0.241545  1
  O  O83  1  0.663574  0.362673  0.202938  1
  O  O84  1  0.663562  0.870466  0.258926  1
  O  O85  1  0.663562  0.637341  0.143585  1
  O  O86  1  0.663571  0.129561  0.202938  1
  O  O87  1  0.336391  0.362727  0.202920  1
  O  O88  1  0.336390  0.870505  0.258907  1
  O  O89  1  0.336372  0.637396  0.143566  1
  O  O90  1  0.336406  0.129601  0.202919  1
  O  O91  1  0.351671  0.313522  0.241545  1
  O  O92  1  0.351647  0.686594  0.160928  1
  O  O93  1  0.439055  0.181958  0.269975  1
  O  O94  1  0.312340  0.764764  0.123542  1
  O  O95  1  0.312368  0.094899  0.237940  1
  O  O96  1  0.312358  0.235361  0.237939  1
  O  O97  1  0.312354  0.905209  0.278930  1
  O  O98  1  0.187593  0.735367  0.278928  1
  O  O99  1  0.187605  0.405211  0.164531  1
  O  O100  1  0.187618  0.264769  0.164530  1
  O  O101  1  0.187591  0.594899  0.123542  1
  O  O102  1  0.223657  0.733818  0.129985  1
  O  O103  1  0.223688  0.096028  0.231008  1
  O  O104  1  0.223673  0.266299  0.231010  1
  O  O105  1  0.223672  0.904100  0.272482  1
  O  O106  1  0.276279  0.766302  0.272485  1
  O  O107  1  0.276286  0.404096  0.171461  1
  O  O108  1  0.276302  0.233820  0.171460  1
  O  O109  1  0.276271  0.596027  0.129987  1
  O  O110  1  0.257216  -0.000000  0.270089  1
  O  O111  1  0.242746  0.500061  0.132381  1
  O  O112  1  0.251687  0.863204  0.309278  1
  O  O113  1  0.251705  0.136919  0.250131  1
  O  O114  1  0.248251  0.636922  0.309278  1
  O  O115  1  0.248275  0.363205  0.152338  1
  O  O116  1  0.095232  0.400345  0.171061  1
  O  O117  1  0.095223  0.760710  0.274504  1
  O  O118  1  0.095220  0.599749  0.127974  1
  O  O119  1  0.095244  0.239410  0.171062  1
  O  O120  1  0.064282  0.367288  0.150570  1
  O  O121  1  0.064279  0.632814  0.309282  1
  O  O122  1  0.060889  0.500047  0.132502  1
  O  O123  1  0.060889  0.681967  0.269974  1
  O  O124  1  0.060892  0.318134  0.132506  1
  O  O125  1  0.257189  0.818703  0.132380  1
  O  O126  1  0.148286  0.500051  0.160929  1
  O  O127  1  0.163584  0.137403  0.199551  1
  O  O128  1  0.163554  0.629604  0.143565  1
  O  O129  1  0.163563  0.862734  0.258903  1
  O  O130  1  0.163567  0.370504  0.199553  1
  O  O131  1  0.305671  0.500061  0.170363  1
  O  O132  1  0.194285  -0.000000  0.232106  1
  O  O133  1  0.249995  0.104277  0.201233  1
  O  O134  1  0.249962  0.604273  0.156198  1
  O  O135  1  0.249979  0.895846  0.246273  1
  O  O136  1  0.249976  0.395842  0.201238  1
  O  O137  1  0.257208  0.181419  0.270089  1
  O  O138  1  0.194252  0.642945  0.170359  1
  O  O139  1  0.194265  0.357172  0.232111  1
  O  O140  1  0.812351  0.264710  0.123560  1
  O  O141  1  0.812341  0.594859  0.237959  1
  O  O142  1  0.812337  0.735313  0.237957  1
  O  O143  1  0.812349  0.405171  0.278949  1
  O  O144  1  0.687598  0.235307  0.278948  1
  O  O145  1  0.687583  0.905167  0.164551  1
  O  O146  1  0.687586  0.764706  0.164552  1
  O  O147  1  0.687591  0.094857  0.123561  1
  O  O148  1  0.723665  0.233767  0.130006  1
  O  O149  1  0.723659  0.595976  0.231029  1
  O  O150  1  0.723654  0.766258  0.231028  1
  O  O151  1  0.723668  0.404043  0.272504  1
  O  O152  1  0.776281  0.266254  0.272505  1
  O  O153  1  0.776264  0.904046  0.171480  1
  O  O154  1  0.776270  0.733765  0.171481  1
  O  O155  1  0.776274  0.095976  0.130006  1
  O  O156  1  0.757197  0.500012  0.270110  1
  O  O157  1  0.742731  -0.000000  0.132400  1
  O  O158  1  0.751690  0.363152  0.093212  1
  O  O159  1  0.751678  0.636873  0.250151  1
  O  O160  1  0.748253  0.136867  0.093212  1
  O  O161  1  0.748242  0.863148  0.152359  1
  O  O162  1  0.904712  0.599726  0.231429  1
  O  O163  1  0.904723  0.239368  0.127984  1
  O  O164  1  0.904721  0.400320  0.274518  1
  O  O165  1  0.904710  0.760673  0.231425  1
  O  O166  1  0.935663  0.632791  0.251917  1
  O  O167  1  0.935668  0.367262  0.093207  1
  O  O168  1  0.939054  0.500027  0.269988  1
  O  O169  1  0.000000  0.407013  0.281093  1
  O  O170  1  0.000000  0.723562  0.240885  1
  O  O171  1  0.851658  0.500016  0.241562  1
  O  O172  1  0.836370  0.862679  0.202936  1
  O  O173  1  0.836385  0.370465  0.258926  1
  O  O174  1  0.836384  0.137347  0.143584  1
  O  O175  1  0.836376  0.629560  0.202938  1
  O  O176  1  0.805685  0.357130  0.232130  1
  O  O177  1  0.805666  -0.000000  0.170380  1
  O  O178  1  0.694268  0.500007  0.232130  1
  O  O179  1  0.749967  0.604221  0.201255  1
  O  O180  1  0.749969  0.104227  0.156216  1
  O  O181  1  0.749976  0.395797  0.246293  1
  O  O182  1  0.749958  0.895803  0.201254  1
  O  O183  1  0.000000  0.593064  0.240890  1
  O  O184  1  0.742735  0.818647  0.132401  1
  O  O185  1  0.805675  0.642890  0.170380  1
  O  O186  1  0.742751  0.181370  0.270109  1
  O  O187  1  -0.000000  0.276512  0.121399  1
  O  O188  1  0.595213  0.900314  0.171075  1
  O  O189  1  0.595226  0.260667  0.274517  1
  O  O190  1  0.595221  0.099721  0.127985  1
  O  O191  1  0.595216  0.739357  0.171078  1
  O  O192  1  0.404711  0.900338  0.171062  1
  O  O193  1  0.404719  0.260697  0.274506  1
  O  O194  1  0.404722  0.099743  0.127973  1
  O  O195  1  0.404706  0.739398  0.171064  1
  O  O196  1  0.564277  0.867250  0.150584  1
  O  O197  1  0.564279  0.132782  0.309293  1
  O  O198  1  0.435664  0.867276  0.150573  1
  O  O199  1  0.435665  0.132801  0.309283  1
  O  O200  1  0.560887  0.818100  0.132517  1
  O  O201  1  0.560890  -0.000000  0.132512  1
  O  O202  1  0.439055  -0.000000  0.132503  1
  O  O203  1  0.499966  0.907002  0.161602  1
  O  O204  1  0.499971  0.223552  0.281092  1
  O  O205  1  0.499972  0.093053  0.121398  1
  O  O206  1  0.499965  0.776503  0.161606  1
  O  O207  1  0.648290  0.313476  0.241562  1
  O  O208  1  0.439056  0.818124  0.132508  1
  O  O209  1  0.648271  -0.000000  0.160946  1
  O  O210  1  0.351658  -0.000000  0.160929  1
  O  O211  1  0.663554  0.637340  0.199572  1
  O  O212  1  0.663556  0.129560  0.143584  1
  O  O213  1  0.663565  0.362672  0.258925  1
  O  O214  1  0.663547  0.870468  0.199571  1
  O  O215  1  0.336364  0.637395  0.199552  1
  O  O216  1  0.336391  0.129603  0.143564  1
  O  O217  1  0.336382  0.362725  0.258904  1
  O  O218  1  0.336376  0.870505  0.199552  1
  O  O219  1  0.560888  0.181935  0.269984  1
  O  O220  1  0.648277  0.686540  0.160947  1
  O  O221  1  0.312338  0.905209  0.164531  1
  O  O222  1  0.312348  0.235360  0.278929  1
  O  O223  1  0.312351  0.094897  0.123541  1
  O  O224  1  0.312332  0.764763  0.164532  1
  O  O225  1  0.187582  0.594901  0.237940  1
  O  O226  1  0.187609  0.264770  0.123541  1
  O  O227  1  0.187594  0.405211  0.278930  1
  O  O228  1  0.187585  0.735366  0.237938  1
  O  O229  1  0.223657  0.904097  0.171461  1
  O  O230  1  0.223663  0.266301  0.272485  1
  O  O231  1  0.223672  0.096029  0.129986  1
  O  O232  1  0.223649  0.733817  0.171461  1
  O  O233  1  0.276262  0.596026  0.231009  1
  O  O234  1  0.276291  0.233820  0.129984  1
  O  O235  1  0.276276  0.404097  0.272482  1
  O  O236  1  0.276269  0.766302  0.231010  1
  O  O237  1  0.257195  0.000000  0.132381  1
  O  O238  1  0.242734  0.500062  0.270089  1
  O  O239  1  0.251672  0.863201  0.152339  1
  O  O240  1  0.251689  0.136919  0.309278  1
  O  O241  1  0.248241  0.636921  0.250132  1
  O  O242  1  0.248263  0.363206  0.309277  1
  O  O243  1  0.095212  0.599753  0.231416  1
  O  O244  1  0.095235  0.239408  0.127972  1
  O  O245  1  0.095222  0.400346  0.274506  1
  O  O246  1  0.095215  0.760712  0.231413  1
  O  O247  1  0.064278  0.632816  0.251908  1
  O  O248  1  0.064280  0.367287  0.309286  1
  O  O249  1  0.060890  0.500049  0.269979  1
  O  O250  1  0.305678  0.857175  0.232111  1
  O  O251  1  0.242731  0.681422  0.270089  1
  O  O252  1  0.148272  0.500054  0.241545  1
  O  O253  1  0.163553  0.862734  0.202918  1
  O  O254  1  0.163555  0.370509  0.258907  1
  O  O255  1  0.163573  0.137403  0.143565  1
  O  O256  1  0.163543  0.629604  0.202920  1
  O  O257  1  0.305662  0.500060  0.232107  1
  O  O258  1  0.305696  0.142947  0.170358  1
  O  O259  1  0.194273  0.000000  0.170362  1
  O  O260  1  0.249967  0.895847  0.201236  1
  O  O261  1  0.249967  0.395842  0.246273  1
  O  O262  1  0.249983  0.104276  0.156197  1
  O  O263  1  0.249953  0.604272  0.201235  1
  O  O264  1  0.148299  0.186603  0.160927  1
  O  O265  1  0.242763  0.318706  0.132379  1
  O  O266  1  0.148274  0.813531  0.241543  1
  O  O267  1  0.812361  0.405167  0.380638  1
  O  O268  1  0.812346  0.735308  0.495035  1
  O  O269  1  0.812351  0.594856  0.339648  1
  O  O270  1  0.812361  0.264709  0.380638  1
  O  O271  1  0.687608  0.094858  0.454047  1
  O  O272  1  0.687595  0.764707  0.339649  1
  O  O273  1  0.687599  0.905171  0.495036  1
  O  O274  1  0.687608  0.235308  0.454046  1
  O  O275  1  0.723679  0.404042  0.387569  1
  O  O276  1  0.723664  0.766255  0.488592  1
  O  O277  1  0.723669  0.595972  0.346094  1
  O  O278  1  0.723677  0.233765  0.387568  1
  O  O279  1  0.776290  0.095978  0.447116  1
  O  O280  1  0.776279  0.733765  0.346094  1
  O  O281  1  0.776279  0.904045  0.488591  1
  O  O282  1  0.776292  0.266256  0.447117  1
  O  O283  1  0.757211  0.500007  0.348488  1
  O  O284  1  0.742752  -0.000000  0.486197  1
  O  O285  1  0.751703  0.363148  0.368447  1
  O  O286  1  0.751689  0.636867  0.309299  1
  O  O287  1  0.748270  0.136871  0.466239  1
  O  O288  1  0.748257  0.863150  0.309300  1
  O  O289  1  0.904731  0.400316  0.387162  1
  O  O290  1  0.904717  0.760670  0.490604  1
  O  O291  1  0.904721  0.599724  0.344071  1
  O  O292  1  0.904732  0.239361  0.387164  1
  O  O293  1  0.935668  0.367255  0.366670  1
  O  O294  1  0.935664  0.632786  0.525379  1
  O  O295  1  0.939053  0.500022  0.348599  1
  O  O296  1  0.000000  0.723560  0.497179  1
  O  O297  1  0.939060  0.318106  0.348603  1
  O  O298  1  0.851672  0.500015  0.377033  1
  O  O299  1  0.851653  0.813480  0.457648  1
  O  O300  1  0.836395  0.137343  0.415658  1
  O  O301  1  0.836387  0.629559  0.359671  1
  O  O302  1  0.836380  0.862675  0.475012  1
  O  O303  1  0.836398  0.370468  0.415659  1
  O  O304  1  0.805679  -0.000000  0.448216  1
  O  O305  1  0.694278  0.500007  0.386469  1
  O  O306  1  0.694261  0.857132  0.448217  1
  O  O307  1  0.749986  0.395799  0.417343  1
  O  O308  1  0.749970  0.895801  0.462380  1
  O  O309  1  0.749976  0.604222  0.372304  1
  O  O310  1  0.749981  0.104223  0.417342  1
  O  O311  1  0.939056  0.681941  0.486070  1
  O  O312  1  0.757195  0.681372  0.486196  1
  O  O313  1  0.851672  0.186544  0.377033  1
  O  O314  1  0.694271  0.142892  0.386468  1
  O  O315  1  0.757211  0.318648  0.348489  1
  O  O316  1  0.000000  0.593060  0.337484  1
  O  O317  1  -0.000000  0.407009  0.377688  1
  O  O318  1  0.000000  0.276510  0.377692  1
  O  O319  1  0.595236  0.099722  0.447518  1
  O  O320  1  0.595224  0.739361  0.344074  1
  O  O321  1  0.595227  0.900316  0.490606  1
  O  O322  1  0.595235  0.260664  0.447515  1
  O  O323  1  0.404738  0.099744  0.447505  1
  O  O324  1  0.404713  0.739397  0.344061  1
  O  O325  1  0.404725  0.900339  0.490594  1
  O  O326  1  0.404728  0.260702  0.447501  1
  O  O327  1  0.564283  0.132781  0.468008  1
  O  O328  1  0.564280  0.867253  0.309297  1
  O  O329  1  0.435668  0.132807  0.467996  1
  O  O330  1  0.435667  0.867276  0.525375  1
  O  O331  1  0.560894  -0.000000  0.486077  1
  O  O332  1  0.439058  -0.000000  0.486068  1
  O  O333  1  0.499983  0.093054  0.456979  1
  O  O334  1  0.499971  0.776504  0.337488  1
  O  O335  1  0.499975  0.907003  0.497182  1
  O  O336  1  0.499978  0.223554  0.456974  1
  O  O337  1  0.648290  -0.000000  0.457650  1
  O  O338  1  0.351676  0.000000  0.457633  1
  O  O339  1  0.663574  0.362673  0.419026  1
  O  O340  1  0.663562  0.870466  0.475013  1
  O  O341  1  0.663562  0.637341  0.359673  1
  O  O342  1  0.663571  0.129561  0.419026  1
  O  O343  1  0.336391  0.362727  0.419007  1
  O  O344  1  0.336390  0.870505  0.474995  1
  O  O345  1  0.336372  0.637396  0.359654  1
  O  O346  1  0.336406  0.129601  0.419007  1
  O  O347  1  0.351671  0.313522  0.457632  1
  O  O348  1  0.351647  0.686594  0.377016  1
  O  O349  1  0.439055  0.181958  0.486063  1
  O  O350  1  0.312340  0.764764  0.339629  1
  O  O351  1  0.312368  0.094899  0.454028  1
  O  O352  1  0.312358  0.235361  0.454027  1
  O  O353  1  0.312354  0.905209  0.495017  1
  O  O354  1  0.187593  0.735367  0.495016  1
  O  O355  1  0.187605  0.405211  0.380619  1
  O  O356  1  0.187618  0.264769  0.380618  1
  O  O357  1  0.187591  0.594899  0.339630  1
  O  O358  1  0.223657  0.733818  0.346073  1
  O  O359  1  0.223688  0.096028  0.447096  1
  O  O360  1  0.223673  0.266299  0.447098  1
  O  O361  1  0.223672  0.904100  0.488569  1
  O  O362  1  0.276279  0.766302  0.488572  1
  O  O363  1  0.276286  0.404096  0.387549  1
  O  O364  1  0.276302  0.233820  0.387548  1
  O  O365  1  0.276271  0.596027  0.346075  1
  O  O366  1  0.257216  -0.000000  0.486176  1
  O  O367  1  0.242746  0.500061  0.348468  1
  O  O368  1  0.251687  0.863204  0.525365  1
  O  O369  1  0.251705  0.136919  0.466219  1
  O  O370  1  0.248251  0.636922  0.525366  1
  O  O371  1  0.248275  0.363205  0.368425  1
  O  O372  1  0.095232  0.400345  0.387148  1
  O  O373  1  0.095223  0.760710  0.490592  1
  O  O374  1  0.095220  0.599749  0.344061  1
  O  O375  1  0.095244  0.239410  0.387150  1
  O  O376  1  0.064282  0.367288  0.366658  1
  O  O377  1  0.064279  0.632814  0.525370  1
  O  O378  1  0.060889  0.500047  0.348589  1
  O  O379  1  0.060889  0.681967  0.486062  1
  O  O380  1  0.060892  0.318134  0.348593  1
  O  O381  1  0.257189  0.818703  0.348468  1
  O  O382  1  0.148286  0.500051  0.377017  1
  O  O383  1  0.163584  0.137403  0.415638  1
  O  O384  1  0.163554  0.629604  0.359653  1
  O  O385  1  0.163563  0.862734  0.474991  1
  O  O386  1  0.163567  0.370504  0.415640  1
  O  O387  1  0.305671  0.500061  0.386450  1
  O  O388  1  0.194285  -0.000000  0.448193  1
  O  O389  1  0.249995  0.104277  0.417320  1
  O  O390  1  0.249962  0.604273  0.372286  1
  O  O391  1  0.249979  0.895846  0.462361  1
  O  O392  1  0.249976  0.395842  0.417325  1
  O  O393  1  0.257208  0.181419  0.486177  1
  O  O394  1  0.194252  0.642945  0.386447  1
  O  O395  1  0.194265  0.357172  0.448199  1
  O  O396  1  0.812351  0.264710  0.339648  1
  O  O397  1  0.812341  0.594859  0.454046  1
  O  O398  1  0.812337  0.735313  0.454044  1
  O  O399  1  0.812349  0.405171  0.495036  1
  O  O400  1  0.687598  0.235307  0.495036  1
  O  O401  1  0.687583  0.905167  0.380638  1
  O  O402  1  0.687586  0.764706  0.380639  1
  O  O403  1  0.687591  0.094857  0.339649  1
  O  O404  1  0.723665  0.233767  0.346093  1
  O  O405  1  0.723659  0.595976  0.447117  1
  O  O406  1  0.723654  0.766258  0.447116  1
  O  O407  1  0.723668  0.404043  0.488592  1
  O  O408  1  0.776281  0.266254  0.488593  1
  O  O409  1  0.776264  0.904046  0.387567  1
  O  O410  1  0.776270  0.733765  0.387568  1
  O  O411  1  0.776274  0.095976  0.346094  1
  O  O412  1  0.757197  0.500012  0.486197  1
  O  O413  1  0.742731  0.000000  0.348488  1
  O  O414  1  0.751690  0.363152  0.309299  1
  O  O415  1  0.751678  0.636873  0.466238  1
  O  O416  1  0.748253  0.136867  0.309299  1
  O  O417  1  0.748242  0.863148  0.368447  1
  O  O418  1  0.904712  0.599726  0.447516  1
  O  O419  1  0.904723  0.239368  0.344072  1
  O  O420  1  0.904721  0.400320  0.490606  1
  O  O421  1  0.904710  0.760673  0.447513  1
  O  O422  1  0.935663  0.632791  0.468005  1
  O  O423  1  0.935668  0.367262  0.309295  1
  O  O424  1  0.939054  0.500027  0.486075  1
  O  O425  1  0.000000  0.407013  0.497180  1
  O  O426  1  0.000000  0.723562  0.456973  1
  O  O427  1  0.851658  0.500016  0.457649  1
  O  O428  1  0.836370  0.862679  0.419024  1
  O  O429  1  0.836385  0.370465  0.475014  1
  O  O430  1  0.836384  0.137347  0.359671  1
  O  O431  1  0.836376  0.629560  0.419026  1
  O  O432  1  0.805685  0.357130  0.448218  1
  O  O433  1  0.805666  -0.000000  0.386468  1
  O  O434  1  0.694268  0.500007  0.448217  1
  O  O435  1  0.749967  0.604221  0.417342  1
  O  O436  1  0.749969  0.104227  0.372303  1
  O  O437  1  0.749976  0.395797  0.462380  1
  O  O438  1  0.749958  0.895803  0.417342  1
  O  O439  1  0.000000  0.593064  0.456977  1
  O  O440  1  0.742735  0.818647  0.348489  1
  O  O441  1  0.805675  0.642890  0.386468  1
  O  O442  1  0.742751  0.181370  0.486197  1
  O  O443  1  0.000000  0.276512  0.337487  1
  O  O444  1  0.595213  0.900314  0.387163  1
  O  O445  1  0.595226  0.260667  0.490605  1
  O  O446  1  0.595221  0.099721  0.344073  1
  O  O447  1  0.595216  0.739357  0.387166  1
  O  O448  1  0.404711  0.900338  0.387150  1
  O  O449  1  0.404719  0.260697  0.490594  1
  O  O450  1  0.404722  0.099743  0.344061  1
  O  O451  1  0.404706  0.739398  0.387152  1
  O  O452  1  0.564277  0.867250  0.366671  1
  O  O453  1  0.564279  0.132782  0.525380  1
  O  O454  1  0.435664  0.867276  0.366661  1
  O  O455  1  0.435665  0.132801  0.525371  1
  O  O456  1  0.560887  0.818100  0.348604  1
  O  O457  1  0.560890  -0.000000  0.348600  1
  O  O458  1  0.439055  -0.000000  0.348591  1
  O  O459  1  0.499966  0.907002  0.377689  1
  O  O460  1  0.499971  0.223552  0.497180  1
  O  O461  1  0.499972  0.093053  0.337485  1
  O  O462  1  0.499965  0.776503  0.377694  1
  O  O463  1  0.648290  0.313476  0.457649  1
  O  O464  1  0.439056  0.818124  0.348595  1
  O  O465  1  0.648271  -0.000000  0.377034  1
  O  O466  1  0.351658  -0.000000  0.377016  1
  O  O467  1  0.663554  0.637340  0.415659  1
  O  O468  1  0.663556  0.129560  0.359672  1
  O  O469  1  0.663565  0.362672  0.475013  1
  O  O470  1  0.663547  0.870468  0.415659  1
  O  O471  1  0.336364  0.637395  0.415640  1
  O  O472  1  0.336391  0.129603  0.359652  1
  O  O473  1  0.336382  0.362725  0.474992  1
  O  O474  1  0.336376  0.870505  0.415640  1
  O  O475  1  0.560888  0.181935  0.486072  1
  O  O476  1  0.648277  0.686540  0.377034  1
  O  O477  1  0.312338  0.905209  0.380619  1
  O  O478  1  0.312348  0.235360  0.495017  1
  O  O479  1  0.312351  0.094897  0.339629  1
  O  O480  1  0.312332  0.764763  0.380619  1
  O  O481  1  0.187582  0.594901  0.454028  1
  O  O482  1  0.187609  0.264770  0.339628  1
  O  O483  1  0.187594  0.405211  0.495017  1
  O  O484  1  0.187585  0.735366  0.454026  1
  O  O485  1  0.223657  0.904097  0.387549  1
  O  O486  1  0.223663  0.266301  0.488572  1
  O  O487  1  0.223672  0.096029  0.346074  1
  O  O488  1  0.223649  0.733817  0.387548  1
  O  O489  1  0.276262  0.596026  0.447097  1
  O  O490  1  0.276291  0.233820  0.346072  1
  O  O491  1  0.276276  0.404097  0.488570  1
  O  O492  1  0.276269  0.766302  0.447098  1
  O  O493  1  0.257195  -0.000000  0.348468  1
  O  O494  1  0.242734  0.500062  0.486177  1
  O  O495  1  0.251672  0.863201  0.368426  1
  O  O496  1  0.251689  0.136919  0.525366  1
  O  O497  1  0.248241  0.636921  0.466219  1
  O  O498  1  0.248263  0.363206  0.525365  1
  O  O499  1  0.095212  0.599753  0.447504  1
  O  O500  1  0.095235  0.239408  0.344059  1
  O  O501  1  0.095222  0.400346  0.490594  1
  O  O502  1  0.095215  0.760712  0.447500  1
  O  O503  1  0.064278  0.632816  0.467995  1
  O  O504  1  0.064280  0.367287  0.525373  1
  O  O505  1  0.060890  0.500049  0.486066  1
  O  O506  1  0.305678  0.857175  0.448198  1
  O  O507  1  0.242731  0.681422  0.486177  1
  O  O508  1  0.148272  0.500054  0.457632  1
  O  O509  1  0.163553  0.862734  0.419006  1
  O  O510  1  0.163555  0.370509  0.474994  1
  O  O511  1  0.163573  0.137403  0.359653  1
  O  O512  1  0.163543  0.629604  0.419007  1
  O  O513  1  0.305662  0.500060  0.448195  1
  O  O514  1  0.305696  0.142947  0.386446  1
  O  O515  1  0.194273  -0.000000  0.386449  1
  O  O516  1  0.249967  0.895847  0.417324  1
  O  O517  1  0.249967  0.395842  0.462361  1
  O  O518  1  0.249983  0.104276  0.372285  1
  O  O519  1  0.249953  0.604272  0.417322  1
  O  O520  1  0.148299  0.186603  0.377014  1
  O  O521  1  0.242763  0.318706  0.348467  1
  O  O522  1  0.148274  0.813531  0.457631  1
  O  O523  1  0.812361  0.405167  0.596726  1
  O  O524  1  0.812346  0.735308  0.711123  1
  O  O525  1  0.812351  0.594856  0.555736  1
  O  O526  1  0.812361  0.264709  0.596726  1
  O  O527  1  0.687608  0.094858  0.670134  1
  O  O528  1  0.687595  0.764707  0.555736  1
  O  O529  1  0.687599  0.905171  0.711124  1
  O  O530  1  0.687608  0.235308  0.670134  1
  O  O531  1  0.723679  0.404042  0.603656  1
  O  O532  1  0.723664  0.766255  0.704679  1
  O  O533  1  0.723669  0.595972  0.562182  1
  O  O534  1  0.723677  0.233765  0.603656  1
  O  O535  1  0.776290  0.095978  0.663204  1
  O  O536  1  0.776279  0.733765  0.562181  1
  O  O537  1  0.776279  0.904045  0.704679  1
  O  O538  1  0.776292  0.266256  0.663204  1
  O  O539  1  0.757211  0.500007  0.564576  1
  O  O540  1  0.742752  -0.000000  0.702285  1
  O  O541  1  0.751703  0.363148  0.584534  1
  O  O542  1  0.751689  0.636867  0.525386  1
  O  O543  1  0.748270  0.136871  0.682327  1
  O  O544  1  0.748257  0.863150  0.525387  1
  O  O545  1  0.904731  0.400316  0.603250  1
  O  O546  1  0.904717  0.760670  0.706691  1
  O  O547  1  0.904721  0.599724  0.560159  1
  O  O548  1  0.904732  0.239361  0.603252  1
  O  O549  1  0.935668  0.367255  0.582758  1
  O  O550  1  0.935664  0.632786  0.741466  1
  O  O551  1  0.939053  0.500022  0.564686  1
  O  O552  1  0.000000  0.723560  0.713266  1
  O  O553  1  0.939060  0.318106  0.564691  1
  O  O554  1  0.851672  0.500015  0.593121  1
  O  O555  1  0.851653  0.813480  0.673736  1
  O  O556  1  0.836395  0.137343  0.631746  1
  O  O557  1  0.836387  0.629559  0.575759  1
  O  O558  1  0.836380  0.862675  0.691100  1
  O  O559  1  0.836398  0.370468  0.631746  1
  O  O560  1  0.805679  -0.000000  0.664304  1
  O  O561  1  0.694278  0.500007  0.602557  1
  O  O562  1  0.694261  0.857132  0.664305  1
  O  O563  1  0.749986  0.395799  0.633430  1
  O  O564  1  0.749970  0.895801  0.678467  1
  O  O565  1  0.749976  0.604222  0.588392  1
  O  O566  1  0.749981  0.104223  0.633429  1
  O  O567  1  0.939056  0.681941  0.702158  1
  O  O568  1  0.757195  0.681372  0.702284  1
  O  O569  1  0.851672  0.186544  0.593120  1
  O  O570  1  0.694271  0.142892  0.602555  1
  O  O571  1  0.757211  0.318648  0.564576  1
  O  O572  1  0.000000  0.593060  0.553572  1
  O  O573  1  0.000000  0.407009  0.593776  1
  O  O574  1  0.000000  0.276510  0.593780  1
  O  O575  1  0.595236  0.099722  0.663606  1
  O  O576  1  0.595224  0.739361  0.560162  1
  O  O577  1  0.595227  0.900316  0.706694  1
  O  O578  1  0.595235  0.260664  0.663603  1
  O  O579  1  0.404738  0.099744  0.663592  1
  O  O580  1  0.404713  0.739397  0.560149  1
  O  O581  1  0.404725  0.900339  0.706682  1
  O  O582  1  0.404728  0.260702  0.663589  1
  O  O583  1  0.564283  0.132781  0.684095  1
  O  O584  1  0.564280  0.867253  0.525384  1
  O  O585  1  0.435668  0.132807  0.684084  1
  O  O586  1  0.435667  0.867276  0.741462  1
  O  O587  1  0.560894  -0.000000  0.702165  1
  O  O588  1  0.439058  -0.000000  0.702155  1
  O  O589  1  0.499983  0.093054  0.673067  1
  O  O590  1  0.499971  0.776504  0.553576  1
  O  O591  1  0.499975  0.907003  0.713270  1
  O  O592  1  0.499978  0.223554  0.673062  1
  O  O593  1  0.648290  -0.000000  0.673737  1
  O  O594  1  0.351676  -0.000000  0.673720  1
  O  O595  1  0.663574  0.362673  0.635113  1
  O  O596  1  0.663562  0.870466  0.691101  1
  O  O597  1  0.663562  0.637341  0.575761  1
  O  O598  1  0.663571  0.129561  0.635113  1
  O  O599  1  0.336391  0.362727  0.635095  1
  O  O600  1  0.336390  0.870505  0.691082  1
  O  O601  1  0.336372  0.637396  0.575741  1
  O  O602  1  0.336406  0.129601  0.635094  1
  O  O603  1  0.351671  0.313522  0.673720  1
  O  O604  1  0.351647  0.686594  0.593104  1
  O  O605  1  0.439055  0.181958  0.702150  1
  O  O606  1  0.312340  0.764764  0.555717  1
  O  O607  1  0.312368  0.094899  0.670115  1
  O  O608  1  0.312358  0.235361  0.670114  1
  O  O609  1  0.312354  0.905209  0.711105  1
  O  O610  1  0.187593  0.735367  0.711104  1
  O  O611  1  0.187605  0.405211  0.596706  1
  O  O612  1  0.187618  0.264769  0.596705  1
  O  O613  1  0.187591  0.594899  0.555717  1
  O  O614  1  0.223657  0.733818  0.562160  1
  O  O615  1  0.223688  0.096028  0.663183  1
  O  O616  1  0.223673  0.266299  0.663185  1
  O  O617  1  0.223672  0.904100  0.704657  1
  O  O618  1  0.276279  0.766302  0.704660  1
  O  O619  1  0.276286  0.404096  0.603636  1
  O  O620  1  0.276302  0.233820  0.603635  1
  O  O621  1  0.276271  0.596027  0.562162  1
  O  O622  1  0.257216  0.000000  0.702264  1
  O  O623  1  0.242746  0.500061  0.564556  1
  O  O624  1  0.251687  0.863204  0.741453  1
  O  O625  1  0.251705  0.136919  0.682306  1
  O  O626  1  0.248251  0.636922  0.741454  1
  O  O627  1  0.248275  0.363205  0.584513  1
  O  O628  1  0.095232  0.400345  0.603236  1
  O  O629  1  0.095223  0.760710  0.706679  1
  O  O630  1  0.095220  0.599749  0.560149  1
  O  O631  1  0.095244  0.239410  0.603238  1
  O  O632  1  0.064282  0.367288  0.582746  1
  O  O633  1  0.064279  0.632814  0.741458  1
  O  O634  1  0.060889  0.500047  0.564677  1
  O  O635  1  0.060889  0.681967  0.702150  1
  O  O636  1  0.060892  0.318134  0.564681  1
  O  O637  1  0.257189  0.818703  0.564556  1
  O  O638  1  0.148286  0.500051  0.593104  1
  O  O639  1  0.163584  0.137403  0.631726  1
  O  O640  1  0.163554  0.629604  0.575740  1
  O  O641  1  0.163563  0.862734  0.691078  1
  O  O642  1  0.163567  0.370504  0.631728  1
  O  O643  1  0.305671  0.500061  0.602538  1
  O  O644  1  0.194285  -0.000000  0.664281  1
  O  O645  1  0.249995  0.104277  0.633408  1
  O  O646  1  0.249962  0.604273  0.588374  1
  O  O647  1  0.249979  0.895846  0.678448  1
  O  O648  1  0.249976  0.395842  0.633413  1
  O  O649  1  0.257208  0.181419  0.702264  1
  O  O650  1  0.194252  0.642945  0.602535  1
  O  O651  1  0.194265  0.357172  0.664286  1
  O  O652  1  0.812351  0.264710  0.555736  1
  O  O653  1  0.812341  0.594859  0.670134  1
  O  O654  1  0.812337  0.735313  0.670132  1
  O  O655  1  0.812349  0.405171  0.711124  1
  O  O656  1  0.687598  0.235307  0.711123  1
  O  O657  1  0.687583  0.905167  0.596726  1
  O  O658  1  0.687586  0.764706  0.596727  1
  O  O659  1  0.687591  0.094857  0.555736  1
  O  O660  1  0.723665  0.233767  0.562181  1
  O  O661  1  0.723659  0.595976  0.663204  1
  O  O662  1  0.723654  0.766258  0.663204  1
  O  O663  1  0.723668  0.404043  0.704679  1
  O  O664  1  0.776281  0.266254  0.704680  1
  O  O665  1  0.776264  0.904046  0.603655  1
  O  O666  1  0.776270  0.733765  0.603656  1
  O  O667  1  0.776274  0.095976  0.562181  1
  O  O668  1  0.757197  0.500012  0.702285  1
  O  O669  1  0.742731  -0.000000  0.564576  1
  O  O670  1  0.751690  0.363152  0.525387  1
  O  O671  1  0.751678  0.636873  0.682326  1
  O  O672  1  0.748253  0.136867  0.525387  1
  O  O673  1  0.748242  0.863148  0.584534  1
  O  O674  1  0.904712  0.599726  0.663604  1
  O  O675  1  0.904723  0.239368  0.560160  1
  O  O676  1  0.904721  0.400320  0.706693  1
  O  O677  1  0.904710  0.760673  0.663601  1
  O  O678  1  0.935663  0.632791  0.684092  1
  O  O679  1  0.935668  0.367262  0.525383  1
  O  O680  1  0.939054  0.500027  0.702163  1
  O  O681  1  0.000000  0.407013  0.713268  1
  O  O682  1  0.000000  0.723562  0.673060  1
  O  O683  1  0.851658  0.500016  0.673737  1
  O  O684  1  0.836370  0.862679  0.635112  1
  O  O685  1  0.836385  0.370465  0.691101  1
  O  O686  1  0.836384  0.137347  0.575759  1
  O  O687  1  0.836376  0.629560  0.635113  1
  O  O688  1  0.805685  0.357130  0.664305  1
  O  O689  1  0.805666  -0.000000  0.602555  1
  O  O690  1  0.694268  0.500007  0.664305  1
  O  O691  1  0.749967  0.604221  0.633430  1
  O  O692  1  0.749969  0.104227  0.588391  1
  O  O693  1  0.749976  0.395797  0.678468  1
  O  O694  1  0.749958  0.895803  0.633429  1
  O  O695  1  0.000000  0.593064  0.673065  1
  O  O696  1  0.742735  0.818647  0.564577  1
  O  O697  1  0.805675  0.642890  0.602555  1
  O  O698  1  0.742751  0.181370  0.702285  1
  O  O699  1  0.000000  0.276512  0.553574  1
  O  O700  1  0.595213  0.900314  0.603250  1
  O  O701  1  0.595226  0.260667  0.706692  1
  O  O702  1  0.595221  0.099721  0.560160  1
  O  O703  1  0.595216  0.739357  0.603253  1
  O  O704  1  0.404711  0.900338  0.603237  1
  O  O705  1  0.404719  0.260697  0.706681  1
  O  O706  1  0.404722  0.099743  0.560148  1
  O  O707  1  0.404706  0.739398  0.603239  1
  O  O708  1  0.564277  0.867250  0.582759  1
  O  O709  1  0.564279  0.132782  0.741468  1
  O  O710  1  0.435664  0.867276  0.582748  1
  O  O711  1  0.435665  0.132801  0.741458  1
  O  O712  1  0.560887  0.818100  0.564692  1
  O  O713  1  0.560890  -0.000000  0.564688  1
  O  O714  1  0.439055  -0.000000  0.564679  1
  O  O715  1  0.499966  0.907002  0.593777  1
  O  O716  1  0.499971  0.223552  0.713267  1
  O  O717  1  0.499972  0.093053  0.553573  1
  O  O718  1  0.499965  0.776503  0.593781  1
  O  O719  1  0.648290  0.313476  0.673737  1
  O  O720  1  0.439056  0.818124  0.564683  1
  O  O721  1  0.648271  0.000000  0.593121  1
  O  O722  1  0.351658  -0.000000  0.593104  1
  O  O723  1  0.663554  0.637340  0.631747  1
  O  O724  1  0.663556  0.129560  0.575759  1
  O  O725  1  0.663565  0.362672  0.691100  1
  O  O726  1  0.663547  0.870468  0.631746  1
  O  O727  1  0.336364  0.637395  0.631727  1
  O  O728  1  0.336391  0.129603  0.575739  1
  O  O729  1  0.336382  0.362725  0.691079  1
  O  O730  1  0.336376  0.870505  0.631728  1
  O  O731  1  0.560888  0.181935  0.702160  1
  O  O732  1  0.648277  0.686540  0.593122  1
  O  O733  1  0.312338  0.905209  0.596707  1
  O  O734  1  0.312348  0.235360  0.711104  1
  O  O735  1  0.312351  0.094897  0.555717  1
  O  O736  1  0.312332  0.764763  0.596707  1
  O  O737  1  0.187582  0.594901  0.670116  1
  O  O738  1  0.187609  0.264770  0.555716  1
  O  O739  1  0.187594  0.405211  0.711105  1
  O  O740  1  0.187585  0.735366  0.670113  1
  O  O741  1  0.223657  0.904097  0.603636  1
  O  O742  1  0.223663  0.266301  0.704660  1
  O  O743  1  0.223672  0.096029  0.562162  1
  O  O744  1  0.223649  0.733817  0.603636  1
  O  O745  1  0.276262  0.596026  0.663184  1
  O  O746  1  0.276291  0.233820  0.562159  1
  O  O747  1  0.276276  0.404097  0.704657  1
  O  O748  1  0.276269  0.766302  0.663185  1
  O  O749  1  0.257195  -0.000000  0.564556  1
  O  O750  1  0.242734  0.500062  0.702264  1
  O  O751  1  0.251672  0.863201  0.584514  1
  O  O752  1  0.251689  0.136919  0.741454  1
  O  O753  1  0.248241  0.636921  0.682307  1
  O  O754  1  0.248263  0.363206  0.741452  1
  O  O755  1  0.095212  0.599753  0.663592  1
  O  O756  1  0.095235  0.239408  0.560147  1
  O  O757  1  0.095222  0.400346  0.706681  1
  O  O758  1  0.095215  0.760712  0.663588  1
  O  O759  1  0.064278  0.632816  0.684083  1
  O  O760  1  0.064280  0.367287  0.741461  1
  O  O761  1  0.060890  0.500049  0.702154  1
  O  O762  1  0.305678  0.857175  0.664286  1
  O  O763  1  0.242731  0.681422  0.702264  1
  O  O764  1  0.148272  0.500054  0.673720  1
  O  O765  1  0.163553  0.862734  0.635094  1
  O  O766  1  0.163555  0.370509  0.691082  1
  O  O767  1  0.163573  0.137403  0.575740  1
  O  O768  1  0.163543  0.629604  0.635095  1
  O  O769  1  0.305662  0.500060  0.664283  1
  O  O770  1  0.305696  0.142947  0.602533  1
  O  O771  1  0.194273  -0.000000  0.602537  1
  O  O772  1  0.249967  0.895847  0.633412  1
  O  O773  1  0.249967  0.395842  0.678449  1
  O  O774  1  0.249983  0.104276  0.588373  1
  O  O775  1  0.249953  0.604272  0.633410  1
  O  O776  1  0.148299  0.186603  0.593102  1
  O  O777  1  0.242763  0.318706  0.564555  1
  O  O778  1  0.148274  0.813531  0.673719  1
  O  O779  1  0.751689  0.636867  0.741474  1
  O  O780  1  0.748257  0.863150  0.741475  1
  O  O781  1  0.564280  0.867253  0.741472  1
  O  O782  1  0.751690  0.363152  0.741474  1
  O  O783  1  0.748253  0.136867  0.741474  1
  O  O784  1  0.935668  0.367262  0.741470  1
  Si  Si785  1  0.794581  0.916747  0.252421  1
  Si  Si786  1  0.794597  0.346492  0.216436  1
  Si  Si787  1  0.705375  0.416743  0.186074  1
  Si  Si788  1  0.705360  0.846491  0.252422  1
  Si  Si789  1  0.794586  0.653530  0.150088  1
  Si  Si790  1  0.705365  0.583274  0.150089  1
  Si  Si791  1  0.705370  0.153531  0.186074  1
  Si  Si792  1  0.794592  0.083278  0.216435  1
  Si  Si793  1  0.760410  0.416876  0.154767  1
  Si  Si794  1  0.760394  0.701740  0.283671  1
  Si  Si795  1  0.760401  0.583140  0.118839  1
  Si  Si796  1  0.760410  0.298277  0.154767  1
  Si  Si797  1  0.739560  0.083145  0.247743  1
  Si  Si798  1  0.739545  0.798276  0.118839  1
  Si  Si799  1  0.739550  0.916879  0.283672  1
  Si  Si800  1  0.739559  0.201743  0.247743  1
  Si  Si801  1  0.944623  0.416851  0.154617  1
  Si  Si802  1  0.944620  0.701066  0.283823  1
  Si  Si803  1  0.944616  0.583195  0.118672  1
  Si  Si804  1  0.944627  0.298980  0.154621  1
  Si  Si805  1  0.853022  0.205524  0.174861  1
  Si  Si806  1  0.853015  0.583391  0.138827  1
  Si  Si807  1  0.853005  0.794496  0.263680  1
  Si  Si808  1  0.853023  0.416637  0.174861  1
  Si  Si809  1  0.353029  0.083426  0.227630  1
  Si  Si810  1  0.353019  0.916672  0.263664  1
  Si  Si811  1  0.352999  0.705576  0.138810  1
  Si  Si812  1  0.555333  0.083191  0.247883  1
  Si  Si813  1  0.555325  0.798974  0.118677  1
  Si  Si814  1  0.555327  0.916848  0.283827  1
  Si  Si815  1  0.555329  0.201063  0.247878  1
  Si  Si816  1  0.444628  0.083210  0.247874  1
  Si  Si817  1  0.444619  0.798997  0.118668  1
  Si  Si818  1  0.444621  0.916867  0.283818  1
  Si  Si819  1  0.444623  0.201084  0.247870  1
  Si  Si820  1  0.646946  0.294492  0.227647  1
  Si  Si821  1  0.646938  0.916639  0.263681  1
  Si  Si822  1  0.646932  0.705523  0.138828  1
  Si  Si823  1  0.646945  0.083393  0.227648  1
  Si  Si824  1  0.353020  0.294543  0.227629  1
  Si  Si825  1  0.294587  0.416793  0.186056  1
  Si  Si826  1  0.205384  0.083330  0.216414  1
  Si  Si827  1  0.205365  0.346533  0.216418  1
  Si  Si828  1  0.205369  0.916799  0.252399  1
  Si  Si829  1  0.205351  0.653583  0.150068  1
  Si  Si830  1  0.294588  0.846536  0.252403  1
  Si  Si831  1  0.260389  0.798332  0.118818  1
  Si  Si832  1  0.260417  0.083193  0.247723  1
  Si  Si833  1  0.260408  0.201790  0.247723  1
  Si  Si834  1  0.260404  0.916928  0.283651  1
  Si  Si835  1  0.239542  0.701795  0.283651  1
  Si  Si836  1  0.239557  0.416928  0.154747  1
  Si  Si837  1  0.239570  0.298333  0.154746  1
  Si  Si838  1  0.239543  0.583193  0.118819  1
  Si  Si839  1  0.055329  0.416875  0.154609  1
  Si  Si840  1  0.055326  0.701094  0.283814  1
  Si  Si841  1  0.055322  0.583218  0.118664  1
  Si  Si842  1  0.055333  0.299005  0.154612  1
  Si  Si843  1  0.146955  0.205586  0.174842  1
  Si  Si844  1  0.146931  0.583428  0.138811  1
  Si  Si845  1  0.146931  0.794550  0.263662  1
  Si  Si846  1  0.146941  0.416674  0.174843  1
  Si  Si847  1  0.294607  0.153584  0.186053  1
  Si  Si848  1  0.294573  0.583324  0.150071  1
  Si  Si849  1  0.705356  0.583274  0.216436  1
  Si  Si850  1  0.705358  0.153533  0.150087  1
  Si  Si851  1  0.760401  0.298277  0.118839  1
  Si  Si852  1  0.760390  0.583145  0.247743  1
  Si  Si853  1  0.760387  0.701745  0.247742  1
  Si  Si854  1  0.760397  0.416880  0.283672  1
  Si  Si855  1  0.739550  0.201740  0.283672  1
  Si  Si856  1  0.739533  0.916877  0.154766  1
  Si  Si857  1  0.739536  0.798276  0.154767  1
  Si  Si858  1  0.739541  0.083142  0.118839  1
  Si  Si859  1  0.944615  0.583199  0.247881  1
  Si  Si860  1  0.944622  0.298981  0.118675  1
  Si  Si861  1  0.944621  0.416856  0.283826  1
  Si  Si862  1  0.944616  0.701071  0.247877  1
  Si  Si863  1  0.852999  0.794498  0.227645  1
  Si  Si864  1  0.853010  0.416639  0.263681  1
  Si  Si865  1  0.853015  0.205529  0.138826  1
  Si  Si866  1  0.853003  0.583393  0.227647  1
  Si  Si867  1  0.794577  0.653530  0.186074  1
  Si  Si868  1  0.794580  0.083280  0.150087  1
  Si  Si869  1  0.794587  0.346489  0.252422  1
  Si  Si870  1  0.794569  0.916749  0.186073  1
  Si  Si871  1  0.705348  0.846493  0.216435  1
  Si  Si872  1  0.705365  0.416743  0.252422  1
  Si  Si873  1  0.353002  0.916672  0.174843  1
  Si  Si874  1  0.353012  0.294540  0.263663  1
  Si  Si875  1  0.555321  0.916846  0.154619  1
  Si  Si876  1  0.555323  0.201061  0.283824  1
  Si  Si877  1  0.555327  0.083190  0.118674  1
  Si  Si878  1  0.555320  0.798974  0.154622  1
  Si  Si879  1  0.444615  0.916865  0.154611  1
  Si  Si880  1  0.444617  0.201083  0.283815  1
  Si  Si881  1  0.444621  0.083208  0.118665  1
  Si  Si882  1  0.444615  0.798995  0.154614  1
  Si  Si883  1  0.646926  0.705520  0.174862  1
  Si  Si884  1  0.646927  0.083392  0.138827  1
  Si  Si885  1  0.646938  0.294493  0.263681  1
  Si  Si886  1  0.646921  0.916638  0.174861  1
  Si  Si887  1  0.352993  0.705577  0.174843  1
  Si  Si888  1  0.353011  0.083426  0.138810  1
  Si  Si889  1  0.205357  0.916799  0.186055  1
  Si  Si890  1  0.205356  0.346535  0.252403  1
  Si  Si891  1  0.205371  0.083330  0.150069  1
  Si  Si892  1  0.260386  0.916927  0.154747  1
  Si  Si893  1  0.260398  0.201791  0.283651  1
  Si  Si894  1  0.260398  0.083192  0.118818  1
  Si  Si895  1  0.260381  0.798330  0.154747  1
  Si  Si896  1  0.239533  0.583194  0.247724  1
  Si  Si897  1  0.239561  0.298335  0.118817  1
  Si  Si898  1  0.239545  0.416929  0.283650  1
  Si  Si899  1  0.239534  0.701793  0.247723  1
  Si  Si900  1  0.055321  0.583220  0.247873  1
  Si  Si901  1  0.055328  0.299007  0.118667  1
  Si  Si902  1  0.055327  0.416877  0.283817  1
  Si  Si903  1  0.055321  0.701092  0.247869  1
  Si  Si904  1  0.146925  0.794551  0.227628  1
  Si  Si905  1  0.146929  0.416677  0.263664  1
  Si  Si906  1  0.146948  0.205585  0.138808  1
  Si  Si907  1  0.146920  0.583431  0.227630  1
  Si  Si908  1  0.294577  0.846536  0.216417  1
  Si  Si909  1  0.294578  0.416793  0.252400  1
  Si  Si910  1  0.294596  0.153584  0.150067  1
  Si  Si911  1  0.294564  0.583324  0.216416  1
  Si  Si912  1  0.205343  0.653582  0.186054  1
  Si  Si913  1  0.794581  0.916747  0.468508  1
  Si  Si914  1  0.794597  0.346492  0.432523  1
  Si  Si915  1  0.705375  0.416743  0.402162  1
  Si  Si916  1  0.705360  0.846491  0.468509  1
  Si  Si917  1  0.794586  0.653530  0.366175  1
  Si  Si918  1  0.705365  0.583274  0.366176  1
  Si  Si919  1  0.705370  0.153531  0.402161  1
  Si  Si920  1  0.794592  0.083278  0.432522  1
  Si  Si921  1  0.760410  0.416876  0.370854  1
  Si  Si922  1  0.760394  0.701740  0.499759  1
  Si  Si923  1  0.760401  0.583140  0.334926  1
  Si  Si924  1  0.760410  0.298277  0.370855  1
  Si  Si925  1  0.739560  0.083145  0.463831  1
  Si  Si926  1  0.739545  0.798276  0.334927  1
  Si  Si927  1  0.739550  0.916879  0.499760  1
  Si  Si928  1  0.739559  0.201743  0.463830  1
  Si  Si929  1  0.944623  0.416851  0.370705  1
  Si  Si930  1  0.944620  0.701066  0.499911  1
  Si  Si931  1  0.944616  0.583195  0.334760  1
  Si  Si932  1  0.944627  0.298980  0.370709  1
  Si  Si933  1  0.853022  0.205524  0.390948  1
  Si  Si934  1  0.853015  0.583391  0.354914  1
  Si  Si935  1  0.853005  0.794496  0.479767  1
  Si  Si936  1  0.853023  0.416637  0.390949  1
  Si  Si937  1  0.353029  0.083426  0.443718  1
  Si  Si938  1  0.353019  0.916672  0.479752  1
  Si  Si939  1  0.352999  0.705576  0.354897  1
  Si  Si940  1  0.555333  0.083191  0.463970  1
  Si  Si941  1  0.555325  0.798974  0.334765  1
  Si  Si942  1  0.555327  0.916848  0.499915  1
  Si  Si943  1  0.555329  0.201063  0.463966  1
  Si  Si944  1  0.444628  0.083210  0.463962  1
  Si  Si945  1  0.444619  0.798997  0.334756  1
  Si  Si946  1  0.444621  0.916867  0.499906  1
  Si  Si947  1  0.444623  0.201084  0.463957  1
  Si  Si948  1  0.646946  0.294492  0.443735  1
  Si  Si949  1  0.646938  0.916639  0.479769  1
  Si  Si950  1  0.646932  0.705523  0.354915  1
  Si  Si951  1  0.646945  0.083393  0.443735  1
  Si  Si952  1  0.353020  0.294543  0.443717  1
  Si  Si953  1  0.294587  0.416793  0.402144  1
  Si  Si954  1  0.205384  0.083330  0.432501  1
  Si  Si955  1  0.205365  0.346533  0.432505  1
  Si  Si956  1  0.205369  0.916799  0.468487  1
  Si  Si957  1  0.205351  0.653583  0.366156  1
  Si  Si958  1  0.294588  0.846536  0.468490  1
  Si  Si959  1  0.260389  0.798332  0.334906  1
  Si  Si960  1  0.260417  0.083193  0.463811  1
  Si  Si961  1  0.260408  0.201790  0.463811  1
  Si  Si962  1  0.260404  0.916928  0.499738  1
  Si  Si963  1  0.239542  0.701795  0.499739  1
  Si  Si964  1  0.239557  0.416928  0.370835  1
  Si  Si965  1  0.239570  0.298333  0.370834  1
  Si  Si966  1  0.239543  0.583193  0.334906  1
  Si  Si967  1  0.055329  0.416875  0.370696  1
  Si  Si968  1  0.055326  0.701094  0.499902  1
  Si  Si969  1  0.055322  0.583218  0.334752  1
  Si  Si970  1  0.055333  0.299005  0.370700  1
  Si  Si971  1  0.146955  0.205586  0.390929  1
  Si  Si972  1  0.146931  0.583428  0.354898  1
  Si  Si973  1  0.146931  0.794550  0.479750  1
  Si  Si974  1  0.146941  0.416674  0.390930  1
  Si  Si975  1  0.294607  0.153584  0.402140  1
  Si  Si976  1  0.294573  0.583324  0.366158  1
  Si  Si977  1  0.705356  0.583274  0.432523  1
  Si  Si978  1  0.705358  0.153533  0.366175  1
  Si  Si979  1  0.760401  0.298277  0.334927  1
  Si  Si980  1  0.760390  0.583145  0.463831  1
  Si  Si981  1  0.760387  0.701745  0.463830  1
  Si  Si982  1  0.760397  0.416880  0.499759  1
  Si  Si983  1  0.739550  0.201740  0.499759  1
  Si  Si984  1  0.739533  0.916877  0.370854  1
  Si  Si985  1  0.739536  0.798276  0.370855  1
  Si  Si986  1  0.739541  0.083142  0.334926  1
  Si  Si987  1  0.944615  0.583199  0.463968  1
  Si  Si988  1  0.944622  0.298981  0.334763  1
  Si  Si989  1  0.944621  0.416856  0.499913  1
  Si  Si990  1  0.944616  0.701071  0.463964  1
  Si  Si991  1  0.852999  0.794498  0.443733  1
  Si  Si992  1  0.853010  0.416639  0.479769  1
  Si  Si993  1  0.853015  0.205529  0.354914  1
  Si  Si994  1  0.853003  0.583393  0.443735  1
  Si  Si995  1  0.794577  0.653530  0.402161  1
  Si  Si996  1  0.794580  0.083280  0.366175  1
  Si  Si997  1  0.794587  0.346489  0.468510  1
  Si  Si998  1  0.794569  0.916749  0.402161  1
  Si  Si999  1  0.705348  0.846493  0.432523  1
  Si  Si1000  1  0.705365  0.416743  0.468509  1
  Si  Si1001  1  0.353002  0.916672  0.390931  1
  Si  Si1002  1  0.353012  0.294540  0.479751  1
  Si  Si1003  1  0.555321  0.916846  0.370706  1
  Si  Si1004  1  0.555323  0.201061  0.499912  1
  Si  Si1005  1  0.555327  0.083190  0.334761  1
  Si  Si1006  1  0.555320  0.798974  0.370710  1
  Si  Si1007  1  0.444615  0.916865  0.370698  1
  Si  Si1008  1  0.444617  0.201083  0.499903  1
  Si  Si1009  1  0.444621  0.083208  0.334752  1
  Si  Si1010  1  0.444615  0.798995  0.370702  1
  Si  Si1011  1  0.646926  0.705520  0.390950  1
  Si  Si1012  1  0.646927  0.083392  0.354915  1
  Si  Si1013  1  0.646938  0.294493  0.479768  1
  Si  Si1014  1  0.646921  0.916638  0.390948  1
  Si  Si1015  1  0.352993  0.705577  0.390931  1
  Si  Si1016  1  0.353011  0.083426  0.354897  1
  Si  Si1017  1  0.205357  0.916799  0.402143  1
  Si  Si1018  1  0.205356  0.346535  0.468490  1
  Si  Si1019  1  0.205371  0.083330  0.366157  1
  Si  Si1020  1  0.260386  0.916927  0.370835  1
  Si  Si1021  1  0.260398  0.201791  0.499739  1
  Si  Si1022  1  0.260398  0.083192  0.334906  1
  Si  Si1023  1  0.260381  0.798330  0.370834  1
  Si  Si1024  1  0.239533  0.583194  0.463811  1
  Si  Si1025  1  0.239561  0.298335  0.334905  1
  Si  Si1026  1  0.239545  0.416929  0.499738  1
  Si  Si1027  1  0.239534  0.701793  0.463811  1
  Si  Si1028  1  0.055321  0.583220  0.463960  1
  Si  Si1029  1  0.055328  0.299007  0.334754  1
  Si  Si1030  1  0.055327  0.416877  0.499905  1
  Si  Si1031  1  0.055321  0.701092  0.463957  1
  Si  Si1032  1  0.146925  0.794551  0.443715  1
  Si  Si1033  1  0.146929  0.416677  0.479752  1
  Si  Si1034  1  0.146948  0.205585  0.354896  1
  Si  Si1035  1  0.146920  0.583431  0.443718  1
  Si  Si1036  1  0.294577  0.846536  0.432505  1
  Si  Si1037  1  0.294578  0.416793  0.468488  1
  Si  Si1038  1  0.294596  0.153584  0.366155  1
  Si  Si1039  1  0.294564  0.583324  0.432503  1
  Si  Si1040  1  0.205343  0.653582  0.402142  1
  Si  Si1041  1  0.794581  0.916747  0.684596  1
  Si  Si1042  1  0.794597  0.346492  0.648611  1
  Si  Si1043  1  0.705375  0.416743  0.618250  1
  Si  Si1044  1  0.705360  0.846491  0.684597  1
  Si  Si1045  1  0.794586  0.653530  0.582263  1
  Si  Si1046  1  0.705365  0.583274  0.582264  1
  Si  Si1047  1  0.705370  0.153531  0.618249  1
  Si  Si1048  1  0.794592  0.083278  0.648610  1
  Si  Si1049  1  0.760410  0.416876  0.586942  1
  Si  Si1050  1  0.760394  0.701740  0.715846  1
  Si  Si1051  1  0.760401  0.583140  0.551014  1
  Si  Si1052  1  0.760410  0.298277  0.586942  1
  Si  Si1053  1  0.739560  0.083145  0.679918  1
  Si  Si1054  1  0.739545  0.798276  0.551015  1
  Si  Si1055  1  0.739550  0.916879  0.715847  1
  Si  Si1056  1  0.739559  0.201743  0.679918  1
  Si  Si1057  1  0.944623  0.416851  0.586793  1
  Si  Si1058  1  0.944620  0.701066  0.715998  1
  Si  Si1059  1  0.944616  0.583195  0.550848  1
  Si  Si1060  1  0.944627  0.298980  0.586796  1
  Si  Si1061  1  0.853022  0.205524  0.607036  1
  Si  Si1062  1  0.853015  0.583391  0.571002  1
  Si  Si1063  1  0.853005  0.794496  0.695855  1
  Si  Si1064  1  0.853023  0.416637  0.607036  1
  Si  Si1065  1  0.353029  0.083426  0.659805  1
  Si  Si1066  1  0.353019  0.916672  0.695840  1
  Si  Si1067  1  0.352999  0.705576  0.570985  1
  Si  Si1068  1  0.555333  0.083191  0.680058  1
  Si  Si1069  1  0.555325  0.798974  0.550852  1
  Si  Si1070  1  0.555327  0.916848  0.716003  1
  Si  Si1071  1  0.555329  0.201063  0.680054  1
  Si  Si1072  1  0.444628  0.083210  0.680049  1
  Si  Si1073  1  0.444619  0.798997  0.550843  1
  Si  Si1074  1  0.444621  0.916867  0.715994  1
  Si  Si1075  1  0.444623  0.201084  0.680045  1
  Si  Si1076  1  0.646946  0.294492  0.659822  1
  Si  Si1077  1  0.646938  0.916639  0.695856  1
  Si  Si1078  1  0.646932  0.705523  0.571003  1
  Si  Si1079  1  0.646945  0.083393  0.659823  1
  Si  Si1080  1  0.353020  0.294543  0.659804  1
  Si  Si1081  1  0.294587  0.416793  0.618231  1
  Si  Si1082  1  0.205384  0.083330  0.648589  1
  Si  Si1083  1  0.205365  0.346533  0.648593  1
  Si  Si1084  1  0.205369  0.916799  0.684575  1
  Si  Si1085  1  0.205351  0.653583  0.582243  1
  Si  Si1086  1  0.294588  0.846536  0.684578  1
  Si  Si1087  1  0.260389  0.798332  0.550993  1
  Si  Si1088  1  0.260417  0.083193  0.679898  1
  Si  Si1089  1  0.260408  0.201790  0.679899  1
  Si  Si1090  1  0.260404  0.916928  0.715826  1
  Si  Si1091  1  0.239542  0.701795  0.715826  1
  Si  Si1092  1  0.239557  0.416928  0.586922  1
  Si  Si1093  1  0.239570  0.298333  0.586921  1
  Si  Si1094  1  0.239543  0.583193  0.550994  1
  Si  Si1095  1  0.055329  0.416875  0.586784  1
  Si  Si1096  1  0.055326  0.701094  0.715989  1
  Si  Si1097  1  0.055322  0.583218  0.550839  1
  Si  Si1098  1  0.055333  0.299005  0.586787  1
  Si  Si1099  1  0.146955  0.205586  0.607017  1
  Si  Si1100  1  0.146931  0.583428  0.570986  1
  Si  Si1101  1  0.146931  0.794550  0.695837  1
  Si  Si1102  1  0.146941  0.416674  0.607018  1
  Si  Si1103  1  0.294607  0.153584  0.618228  1
  Si  Si1104  1  0.294573  0.583324  0.582246  1
  Si  Si1105  1  0.705356  0.583274  0.648611  1
  Si  Si1106  1  0.705358  0.153533  0.582263  1
  Si  Si1107  1  0.760401  0.298277  0.551014  1
  Si  Si1108  1  0.760390  0.583145  0.679918  1
  Si  Si1109  1  0.760387  0.701745  0.679917  1
  Si  Si1110  1  0.760397  0.416880  0.715847  1
  Si  Si1111  1  0.739550  0.201740  0.715847  1
  Si  Si1112  1  0.739533  0.916877  0.586942  1
  Si  Si1113  1  0.739536  0.798276  0.586943  1
  Si  Si1114  1  0.739541  0.083142  0.551014  1
  Si  Si1115  1  0.944615  0.583199  0.680056  1
  Si  Si1116  1  0.944622  0.298981  0.550851  1
  Si  Si1117  1  0.944621  0.416856  0.716001  1
  Si  Si1118  1  0.944616  0.701071  0.680052  1
  Si  Si1119  1  0.852999  0.794498  0.659821  1
  Si  Si1120  1  0.853010  0.416639  0.695856  1
  Si  Si1121  1  0.853015  0.205529  0.571001  1
  Si  Si1122  1  0.853003  0.583393  0.659823  1
  Si  Si1123  1  0.794577  0.653530  0.618249  1
  Si  Si1124  1  0.794580  0.083280  0.582263  1
  Si  Si1125  1  0.794587  0.346489  0.684598  1
  Si  Si1126  1  0.794569  0.916749  0.618248  1
  Si  Si1127  1  0.705348  0.846493  0.648611  1
  Si  Si1128  1  0.705365  0.416743  0.684597  1
  Si  Si1129  1  0.353002  0.916672  0.607018  1
  Si  Si1130  1  0.353012  0.294540  0.695838  1
  Si  Si1131  1  0.555321  0.916846  0.586794  1
  Si  Si1132  1  0.555323  0.201061  0.715999  1
  Si  Si1133  1  0.555327  0.083190  0.550849  1
  Si  Si1134  1  0.555320  0.798974  0.586798  1
  Si  Si1135  1  0.444615  0.916865  0.586786  1
  Si  Si1136  1  0.444617  0.201083  0.715990  1
  Si  Si1137  1  0.444621  0.083208  0.550840  1
  Si  Si1138  1  0.444615  0.798995  0.586789  1
  Si  Si1139  1  0.646926  0.705520  0.607037  1
  Si  Si1140  1  0.646927  0.083392  0.571002  1
  Si  Si1141  1  0.646938  0.294493  0.695856  1
  Si  Si1142  1  0.646921  0.916638  0.607036  1
  Si  Si1143  1  0.352993  0.705577  0.607018  1
  Si  Si1144  1  0.353011  0.083426  0.570985  1
  Si  Si1145  1  0.205357  0.916799  0.618230  1
  Si  Si1146  1  0.205356  0.346535  0.684578  1
  Si  Si1147  1  0.205371  0.083330  0.582244  1
  Si  Si1148  1  0.260386  0.916927  0.586922  1
  Si  Si1149  1  0.260398  0.201791  0.715826  1
  Si  Si1150  1  0.260398  0.083192  0.550993  1
  Si  Si1151  1  0.260381  0.798330  0.586922  1
  Si  Si1152  1  0.239533  0.583194  0.679899  1
  Si  Si1153  1  0.239561  0.298335  0.550993  1
  Si  Si1154  1  0.239545  0.416929  0.715826  1
  Si  Si1155  1  0.239534  0.701793  0.679898  1
  Si  Si1156  1  0.055321  0.583220  0.680048  1
  Si  Si1157  1  0.055328  0.299007  0.550842  1
  Si  Si1158  1  0.055327  0.416877  0.715992  1
  Si  Si1159  1  0.055321  0.701092  0.680044  1
  Si  Si1160  1  0.146925  0.794551  0.659803  1
  Si  Si1161  1  0.146929  0.416677  0.695839  1
  Si  Si1162  1  0.146948  0.205585  0.570983  1
  Si  Si1163  1  0.146920  0.583431  0.659805  1
  Si  Si1164  1  0.294577  0.846536  0.648592  1
  Si  Si1165  1  0.294578  0.416793  0.684575  1
  Si  Si1166  1  0.294596  0.153584  0.582243  1
  Si  Si1167  1  0.294564  0.583324  0.648591  1
  Si  Si1168  1  0.205343  0.653582  0.618229  1
  H  H1169  1  0.935664  0.632786  0.082682  1
  H  H1170  1  0.435667  0.867276  0.082678  1
  H  H1171  1  0.251687  0.863204  0.082668  1
  H  H1172  1  0.248251  0.636922  0.082669  1
  H  H1173  1  0.064279  0.632814  0.082673  1
  H  H1174  1  0.564279  0.132782  0.082683  1
  H  H1175  1  0.435665  0.132801  0.082674  1
  H  H1176  1  0.251689  0.136919  0.082669  1
  H  H1177  1  0.248263  0.363206  0.082668  1
  H  H1178  1  0.064280  0.367287  0.082676  1
  H  H1179  1  0.751689  0.636867  0.082689  1
  H  H1180  1  0.748257  0.863150  0.082690  1
  H  H1181  1  0.564280  0.867253  0.082687  1
  H  H1182  1  0.751690  0.363152  0.082690  1
  H  H1183  1  0.748253  0.136867  0.082690  1
  H  H1184  1  0.935668  0.367262  0.082685  1
  H  H1185  1  0.935664  0.632786  0.751988  1
  H  H1186  1  0.435667  0.867276  0.751984  1
  H  H1187  1  0.251687  0.863204  0.751975  1
  H  H1188  1  0.248251  0.636922  0.751976  1
  H  H1189  1  0.064279  0.632814  0.751980  1
  H  H1190  1  0.564279  0.132782  0.751990  1
  H  H1191  1  0.435665  0.132801  0.751980  1
  H  H1192  1  0.251689  0.136919  0.751976  1
  H  H1193  1  0.248263  0.363206  0.751974  1
  H  H1194  1  0.064280  0.367287  0.751983  1
  H  H1195  1  0.751689  0.636867  0.751996  1
  H  H1196  1  0.748257  0.863150  0.751997  1
  H  H1197  1  0.564280  0.867253  0.751994  1
  H  H1198  1  0.751690  0.363152  0.751996  1
  H  H1199  1  0.748253  0.136867  0.751996  1
  H  H1200  1  0.935668  0.367262  0.751992  1
