# generated using pymatgen
data_Si66H2O133
_symmetry_space_group_name_H-M   'P 1'
_cell_length_a   17.25289407
_cell_length_b   17.25278161
_cell_length_c   137.93843828
_cell_angle_alpha   90.00000000
_cell_angle_beta   90.00000000
_cell_angle_gamma   120.00000000
_symmetry_Int_Tables_number   1
_chemical_formula_structural   Si66H2O133
_chemical_formula_sum   'Si396 H12 O798'
_cell_volume   35557.9747436
_cell_formula_units_Z   6
loop_
 _symmetry_equiv_pos_site_id
 _symmetry_equiv_pos_as_xyz
  1  'x, y, z'
loop_
 _atom_site_type_symbol
 _atom_site_label
 _atom_site_symmetry_multiplicity
 _atom_site_fract_x
 _atom_site_fract_y
 _atom_site_fract_z
 _atom_site_occupancy
  O  O1  1  0.242447  0.484856  0.075075  1
  O  O2  1  0.100609  0.413726  0.042778  1
  O  O3  1  0.313249  0.413779  0.042778  1
  O  O4  1  0.353471  0.433930  0.080885  1
  O  O5  1  0.080477  0.433859  0.080895  1
  O  O6  1  0.128514  0.461758  0.061836  1
  O  O7  1  0.333356  0.461863  0.061833  1
  O  O8  1  0.343097  0.457072  0.099347  1
  O  O9  1  0.114124  0.457085  0.099352  1
  O  O10  1  0.258817  0.030173  0.106914  1
  O  O11  1  0.970093  0.228459  0.106929  1
  O  O12  1  0.258822  0.228460  0.106927  1
  O  O13  1  0.771900  0.030070  0.106931  1
  O  O14  1  0.663946  0.041262  0.094654  1
  O  O15  1  0.377419  0.336181  0.094664  1
  O  O16  1  0.958891  0.336173  0.094684  1
  O  O17  1  0.377389  0.041151  0.094640  1
  O  O18  1  0.811026  0.189074  0.101891  1
  O  O19  1  0.378544  0.189244  0.101869  1
  O  O20  1  0.237412  0.474596  0.111549  1
  O  O21  1  0.666987  0.082585  0.112068  1
  O  O22  1  0.416433  0.082810  0.112031  1
  O  O23  1  0.416338  0.333488  0.112067  1
  O  O24  1  0.091256  0.181152  0.149067  1
  O  O25  1  0.182649  0.090891  0.175556  1
  O  O26  1  0.909566  0.090928  0.175551  1
  O  O27  1  0.157790  0.078253  0.150408  1
  O  O28  1  0.921851  0.078352  0.150395  1
  O  O29  1  0.079005  0.156719  0.174235  1
  O  O30  1  0.253753  0.020225  0.143244  1
  O  O31  1  0.980606  0.232656  0.143256  1
  O  O32  1  0.253250  0.232572  0.143254  1
  O  O33  1  0.767604  0.020132  0.143262  1
  O  O34  1  0.233221  0.252767  0.181366  1
  O  O35  1  0.020715  0.252818  0.181353  1
  O  O36  1  -0.000000  0.204632  0.162305  1
  O  O37  1  0.205284  0.204598  0.162312  1
  O  O38  1  0.192461  0.096016  0.212039  1
  O  O39  1  0.210041  0.219246  0.199827  1
  O  O40  1  0.010078  0.219251  0.199813  1
  O  O41  1  0.219714  0.009737  0.124786  1
  O  O42  1  0.990720  0.209641  0.124794  1
  O  O43  1  0.219553  0.209595  0.124793  1
  O  O44  1  0.790742  0.009820  0.124807  1
  O  O45  1  0.076331  0.151872  0.210823  1
  O  O46  1  0.152203  0.075951  0.113789  1
  O  O47  1  0.924343  0.075998  0.113794  1
  O  O48  1  0.363636  0.438291  0.117215  1
  O  O49  1  0.074953  0.438249  0.117223  1
  O  O50  1  0.438522  0.074645  0.207430  1
  O  O51  1  0.925303  0.363298  0.207411  1
  O  O52  1  0.636860  0.074819  0.207427  1
  O  O53  1  0.438492  0.363444  0.207411  1
  O  O54  1  0.375071  0.044244  0.129436  1
  O  O55  1  0.956465  0.330529  0.129496  1
  O  O56  1  0.374752  0.330599  0.129469  1
  O  O57  1  0.669979  0.044290  0.129483  1
  O  O58  1  0.330871  0.374439  0.195147  1
  O  O59  1  0.044434  0.374466  0.195132  1
  O  O60  1  0.904334  0.096003  0.212015  1
  O  O61  1  0.096325  0.192101  0.112586  1
  O  O62  1  0.522705  0.477703  0.122268  1
  O  O63  1  0.522921  0.045057  0.122231  1
  O  O64  1  0.955232  0.477471  0.122274  1
  O  O65  1  0.320182  0.159979  0.132470  1
  O  O66  1  0.840656  0.159994  0.132519  1
  O  O67  1  0.160323  0.319691  0.192124  1
  O  O68  1  0.917426  0.333235  0.112096  1
  O  O69  1  0.082786  0.415872  0.212544  1
  O  O70  1  0.333591  0.416083  0.212545  1
  O  O71  1  0.484980  0.242461  0.249559  1
  O  O72  1  0.757785  0.242424  0.249554  1
  O  O73  1  0.848555  0.424255  0.276034  1
  O  O74  1  0.575805  0.424258  0.276035  1
  O  O75  1  0.575908  0.151580  0.276042  1
  O  O76  1  0.588383  0.176440  0.250883  1
  O  O77  1  0.823773  0.411803  0.250877  1
  O  O78  1  0.588245  0.411830  0.250881  1
  O  O79  1  0.745195  0.490294  0.274711  1
  O  O80  1  0.509794  0.254880  0.274716  1
  O  O81  1  0.745293  0.254884  0.274711  1
  O  O82  1  0.434110  0.080498  0.243754  1
  O  O83  1  0.919762  0.353479  0.243743  1
  O  O84  1  0.646693  0.080432  0.243753  1
  O  O85  1  0.434016  0.353447  0.243737  1
  O  O86  1  0.413882  0.313206  0.281852  1
  O  O87  1  0.686921  0.100622  0.281850  1
  O  O88  1  0.413929  0.100595  0.281853  1
  O  O89  1  0.899536  0.313300  0.281851  1
  O  O90  1  0.462047  0.128593  0.262802  1
  O  O91  1  0.871630  0.333375  0.262794  1
  O  O92  1  0.666814  0.128573  0.262799  1
  O  O93  1  0.461919  0.333328  0.262796  1
  O  O94  1  0.292222  0.002797  0.295629  1
  O  O95  1  0.710936  0.002895  0.295621  1
  O  O96  1  0.447446  0.323593  0.300314  1
  O  O97  1  0.676462  0.123679  0.300310  1
  O  O98  1  0.447442  0.123689  0.300314  1
  O  O99  1  0.876357  0.323681  0.300314  1
  O  O100  1  0.457204  0.113962  0.225295  1
  O  O101  1  0.886241  0.343029  0.225286  1
  O  O102  1  0.657137  0.113928  0.225298  1
  O  O103  1  0.457225  0.342980  0.225280  1
  O  O104  1  0.742653  0.485208  0.311322  1
  O  O105  1  0.514792  0.257310  0.311322  1
  O  O106  1  0.742677  0.257313  0.311316  1
  O  O107  1  0.590904  0.181360  0.214296  1
  O  O108  1  0.818778  0.409233  0.214282  1
  O  O109  1  0.590897  0.409227  0.214277  1
  O  O110  1  0.228712  0.258573  0.217693  1
  O  O111  1  0.030400  0.258438  0.217683  1
  O  O112  1  0.104955  0.408053  0.307889  1
  O  O113  1  0.303248  0.408039  0.307887  1
  O  O114  1  0.041501  0.377502  0.229960  1
  O  O115  1  0.336322  0.377347  0.229948  1
  O  O116  1  0.292230  0.289275  0.295631  1
  O  O117  1  0.997250  0.289358  0.295630  1
  O  O118  1  0.762910  0.237227  0.213104  1
  O  O119  1  0.474745  0.237196  0.213087  1
  O  O120  1  0.570673  0.141163  0.312508  1
  O  O121  1  0.189329  0.378307  0.222725  1
  O  O122  1  0.144226  0.288290  0.302845  1
  O  O123  1  0.986597  0.493229  0.232988  1
  O  O124  1  0.506934  0.493178  0.232971  1
  O  O125  1  0.506939  0.013527  0.232997  1
  O  O126  1  0.346996  0.173431  0.292611  1
  O  O127  1  0.826668  0.173525  0.292610  1
  O  O128  1  0.858781  0.429326  0.312518  1
  O  O129  1  0.570650  0.429324  0.312516  1
  O  O130  1  0.151476  0.575641  0.048595  1
  O  O131  1  0.424264  0.575720  0.048593  1
  O  O132  1  0.424283  0.848368  0.048587  1
  O  O133  1  0.515328  0.757564  0.075075  1
  O  O134  1  0.242443  0.757441  0.075070  1
  O  O135  1  0.254849  0.509639  0.049918  1
  O  O136  1  0.490379  0.745093  0.049919  1
  O  O137  1  0.254859  0.745022  0.049912  1
  O  O138  1  0.411881  0.823500  0.073745  1
  O  O139  1  0.176291  0.588072  0.073750  1
  O  O140  1  0.411889  0.588186  0.073751  1
  O  O141  1  0.586223  0.686703  0.042779  1
  O  O142  1  0.313257  0.899300  0.042773  1
  O  O143  1  0.586252  0.899348  0.042777  1
  O  O144  1  0.100614  0.686695  0.042777  1
  O  O145  1  0.566177  0.919536  0.080879  1
  O  O146  1  0.080465  0.646500  0.080891  1
  O  O147  1  0.353516  0.919421  0.080871  1
  O  O148  1  0.566183  0.646476  0.080889  1
  O  O149  1  0.538199  0.666588  0.061835  1
  O  O150  1  0.333367  0.871308  0.061825  1
  O  O151  1  0.538202  0.871411  0.061831  1
  O  O152  1  0.128522  0.666589  0.061833  1
  O  O153  1  0.543102  0.886044  0.099334  1
  O  O154  1  0.114097  0.656981  0.099348  1
  O  O155  1  0.343105  0.885937  0.099331  1
  O  O156  1  0.543087  0.656931  0.099346  1
  O  O157  1  0.409435  0.818606  0.110334  1
  O  O158  1  0.181549  0.590741  0.110353  1
  O  O159  1  0.409417  0.590721  0.110349  1
  O  O160  1  0.771837  0.741548  0.106949  1
  O  O161  1  0.970027  0.741407  0.106935  1
  O  O162  1  0.958879  0.622626  0.094681  1
  O  O163  1  0.663876  0.622460  0.094674  1
  O  O164  1  0.810908  0.621680  0.101907  1
  O  O165  1  0.013622  0.506769  0.091656  1
  O  O166  1  0.493248  0.506732  0.091645  1
  O  O167  1  0.493303  0.986431  0.091632  1
  O  O168  1  0.525559  0.762731  0.111528  1
  O  O169  1  0.237432  0.762769  0.111540  1
  O  O170  1  0.818630  0.909107  0.149076  1
  O  O171  1  0.091917  0.908994  0.149081  1
  O  O172  1  0.909926  0.818574  0.175561  1
  O  O173  1  0.922398  0.843391  0.150393  1
  O  O174  1  0.843562  0.921623  0.174235  1
  O  O175  1  0.079339  0.921599  0.174225  1
  O  O176  1  0.767931  0.747235  0.143277  1
  O  O177  1  0.980403  0.747217  0.143262  1
  O  O178  1  0.747587  0.979885  0.181375  1
  O  O179  1  0.020635  0.767313  0.181375  1
  O  O180  1  0.747860  0.767320  0.181370  1
  O  O181  1  0.233390  0.979779  0.181394  1
  O  O182  1  0.796052  0.795393  0.162318  1
  O  O183  1  -0.000000  0.795291  0.162316  1
  O  O184  1  0.096346  0.903954  0.112594  1
  O  O185  1  0.781039  0.990199  0.199832  1
  O  O186  1  0.009987  0.790343  0.199837  1
  O  O187  1  0.781153  0.790346  0.199835  1
  O  O188  1  0.209987  0.990200  0.199850  1
  O  O189  1  0.790737  0.780718  0.124819  1
  O  O190  1  0.990683  0.780761  0.124801  1
  O  O191  1  0.848439  0.923974  0.210841  1
  O  O192  1  0.076292  0.923989  0.210848  1
  O  O193  1  0.924346  0.848118  0.113805  1
  O  O194  1  0.561943  0.925141  0.117207  1
  O  O195  1  0.074933  0.636531  0.117217  1
  O  O196  1  0.363783  0.925341  0.117192  1
  O  O197  1  0.561877  0.636665  0.117222  1
  O  O198  1  0.636798  0.561734  0.207409  1
  O  O199  1  0.925415  0.561657  0.207412  1
  O  O200  1  0.669858  0.625523  0.129502  1
  O  O201  1  0.956334  0.625533  0.129483  1
  O  O202  1  0.625798  0.955736  0.195152  1
  O  O203  1  0.044211  0.669372  0.195159  1
  O  O204  1  0.625985  0.669473  0.195140  1
  O  O205  1  0.330854  0.955772  0.195186  1
  O  O206  1  0.666807  0.584116  0.112091  1
  O  O207  1  0.205818  0.000000  0.162323  1
  O  O208  1  0.477850  0.522511  0.202359  1
  O  O209  1  0.477934  0.954930  0.202392  1
  O  O210  1  0.045082  0.522262  0.202360  1
  O  O211  1  0.840540  0.680297  0.132505  1
  O  O212  1  0.680737  0.840027  0.192120  1
  O  O213  1  0.160223  0.839995  0.192156  1
  O  O214  1  0.904278  0.807835  0.212045  1
  O  O215  1  0.808196  0.903979  0.112622  1
  O  O216  1  0.584275  0.666735  0.212540  1
  O  O217  1  0.917393  0.583895  0.112085  1
  O  O218  1  0.795586  0.000000  0.162318  1
  O  O219  1  0.757629  0.515086  0.249555  1
  O  O220  1  0.646656  0.566062  0.243737  1
  O  O221  1  0.919607  0.566056  0.243743  1
  O  O222  1  0.899432  0.586162  0.281852  1
  O  O223  1  0.686826  0.586170  0.281852  1
  O  O224  1  0.666746  0.538152  0.262794  1
  O  O225  1  0.871519  0.538120  0.262795  1
  O  O226  1  0.762901  0.525362  0.213081  1
  O  O227  1  0.876275  0.552551  0.300314  1
  O  O228  1  0.676370  0.552560  0.300314  1
  O  O229  1  0.657136  0.542874  0.225279  1
  O  O230  1  0.886122  0.542895  0.225282  1
  O  O231  1  0.741917  0.969907  0.217704  1
  O  O232  1  0.030436  0.771473  0.217702  1
  O  O233  1  0.741721  0.771515  0.217702  1
  O  O234  1  0.228712  0.969767  0.217717  1
  O  O235  1  0.591936  0.696750  0.307888  1
  O  O236  1  0.303241  0.895047  0.307884  1
  O  O237  1  0.591851  0.894955  0.307891  1
  O  O238  1  0.104907  0.696730  0.307886  1
  O  O239  1  0.336351  0.958782  0.229982  1
  O  O240  1  0.622830  0.663802  0.229950  1
  O  O241  1  0.041343  0.663770  0.229964  1
  O  O242  1  0.622760  0.958702  0.229979  1
  O  O243  1  0.997174  0.707778  0.295632  1
  O  O244  1  0.710700  0.707789  0.295633  1
  O  O245  1  0.333700  0.917165  0.212587  1
  O  O246  1  0.082922  0.666457  0.212560  1
  O  O247  1  0.584462  0.917375  0.212565  1
  O  O248  1  0.189403  0.810688  0.222753  1
  O  O249  1  0.622046  0.810903  0.222744  1
  O  O250  1  0.144207  0.855778  0.302844  1
  O  O251  1  0.711665  0.855788  0.302843  1
  O  O252  1  0.826549  0.653009  0.292617  1
  O  O253  1  0.242447  0.484856  0.376513  1
  O  O254  1  0.100609  0.413726  0.344217  1
  O  O255  1  0.313249  0.413779  0.344217  1
  O  O256  1  0.353471  0.433930  0.382324  1
  O  O257  1  0.080477  0.433859  0.382334  1
  O  O258  1  0.128514  0.461758  0.363275  1
  O  O259  1  0.333356  0.461863  0.363272  1
  O  O260  1  0.343097  0.457072  0.400786  1
  O  O261  1  0.114124  0.457085  0.400791  1
  O  O262  1  0.123783  0.447334  0.325757  1
  O  O263  1  0.323680  0.447332  0.325756  1
  O  O264  1  0.408143  0.303148  0.318182  1
  O  O265  1  0.696835  0.104832  0.318177  1
  O  O266  1  0.408152  0.104826  0.318180  1
  O  O267  1  0.895144  0.303147  0.318181  1
  O  O268  1  0.258817  0.030173  0.408353  1
  O  O269  1  0.970093  0.228459  0.408368  1
  O  O270  1  0.258822  0.228460  0.408366  1
  O  O271  1  0.771900  0.030070  0.408370  1
  O  O272  1  0.002879  0.292102  0.330435  1
  O  O273  1  0.289367  0.292118  0.330438  1
  O  O274  1  0.663946  0.041262  0.396093  1
  O  O275  1  0.377419  0.336181  0.396103  1
  O  O276  1  0.958891  0.336173  0.396123  1
  O  O277  1  0.377389  0.041151  0.396079  1
  O  O278  1  0.855867  0.144095  0.323217  1
  O  O279  1  0.288392  0.144115  0.323222  1
  O  O280  1  0.811026  0.189074  0.403329  1
  O  O281  1  0.378544  0.189244  0.403307  1
  O  O282  1  0.173501  0.346879  0.333455  1
  O  O283  1  0.237412  0.474596  0.412988  1
  O  O284  1  0.666987  0.082585  0.413507  1
  O  O285  1  0.416433  0.082810  0.413470  1
  O  O286  1  0.416338  0.333488  0.413505  1
  O  O287  1  0.250654  0.250550  0.313035  1
  O  O288  1  -0.000000  0.250554  0.313032  1
  O  O289  1  0.091256  0.181152  0.450506  1
  O  O290  1  0.182649  0.090891  0.476995  1
  O  O291  1  0.909566  0.090928  0.476990  1
  O  O292  1  0.157790  0.078253  0.451847  1
  O  O293  1  0.921851  0.078352  0.451834  1
  O  O294  1  0.079005  0.156719  0.475674  1
  O  O295  1  0.253753  0.020225  0.444683  1
  O  O296  1  0.980606  0.232656  0.444695  1
  O  O297  1  0.253250  0.232572  0.444693  1
  O  O298  1  0.767604  0.020132  0.444701  1
  O  O299  1  0.233221  0.252767  0.482805  1
  O  O300  1  0.020715  0.252818  0.482792  1
  O  O301  1  -0.000000  0.204632  0.463744  1
  O  O302  1  0.205284  0.204598  0.463751  1
  O  O303  1  0.192461  0.096016  0.513478  1
  O  O304  1  0.210041  0.219246  0.501266  1
  O  O305  1  0.010078  0.219251  0.501252  1
  O  O306  1  0.219714  0.009737  0.426225  1
  O  O307  1  0.990720  0.209641  0.426233  1
  O  O308  1  0.219553  0.209595  0.426232  1
  O  O309  1  0.790742  0.009820  0.426245  1
  O  O310  1  0.076331  0.151872  0.512262  1
  O  O311  1  0.152203  0.075951  0.415228  1
  O  O312  1  0.924343  0.075998  0.415232  1
  O  O313  1  0.363636  0.438291  0.418654  1
  O  O314  1  0.074953  0.438249  0.418662  1
  O  O315  1  0.438522  0.074645  0.508869  1
  O  O316  1  0.925303  0.363298  0.508850  1
  O  O317  1  0.636860  0.074819  0.508866  1
  O  O318  1  0.438492  0.363444  0.508850  1
  O  O319  1  0.375071  0.044244  0.430875  1
  O  O320  1  0.956465  0.330529  0.430935  1
  O  O321  1  0.374752  0.330599  0.430907  1
  O  O322  1  0.669979  0.044290  0.430922  1
  O  O323  1  0.330871  0.374439  0.496586  1
  O  O324  1  0.044434  0.374466  0.496571  1
  O  O325  1  0.904334  0.096003  0.513454  1
  O  O326  1  0.096325  0.192101  0.414025  1
  O  O327  1  0.522705  0.477703  0.423707  1
  O  O328  1  0.522921  0.045057  0.423670  1
  O  O329  1  0.955232  0.477471  0.423713  1
  O  O330  1  0.320182  0.159979  0.433909  1
  O  O331  1  0.840656  0.159994  0.433958  1
  O  O332  1  0.160323  0.319691  0.493563  1
  O  O333  1  0.917426  0.333235  0.413535  1
  O  O334  1  0.082786  0.415872  0.513983  1
  O  O335  1  0.333591  0.416083  0.513983  1
  O  O336  1  0.484980  0.242461  0.550998  1
  O  O337  1  0.757785  0.242424  0.550993  1
  O  O338  1  0.848555  0.424255  0.577472  1
  O  O339  1  0.575805  0.424258  0.577474  1
  O  O340  1  0.575908  0.151580  0.577481  1
  O  O341  1  0.588383  0.176440  0.552322  1
  O  O342  1  0.823773  0.411803  0.552316  1
  O  O343  1  0.588245  0.411830  0.552320  1
  O  O344  1  0.745195  0.490294  0.576149  1
  O  O345  1  0.509794  0.254880  0.576155  1
  O  O346  1  0.745293  0.254884  0.576150  1
  O  O347  1  0.434110  0.080498  0.545193  1
  O  O348  1  0.919762  0.353479  0.545181  1
  O  O349  1  0.646693  0.080432  0.545192  1
  O  O350  1  0.434016  0.353447  0.545176  1
  O  O351  1  0.413882  0.313206  0.583291  1
  O  O352  1  0.686921  0.100622  0.583289  1
  O  O353  1  0.413929  0.100595  0.583292  1
  O  O354  1  0.899536  0.313300  0.583290  1
  O  O355  1  0.462047  0.128593  0.564241  1
  O  O356  1  0.871630  0.333375  0.564233  1
  O  O357  1  0.666814  0.128573  0.564238  1
  O  O358  1  0.461919  0.333328  0.564235  1
  O  O359  1  0.292222  0.002797  0.597067  1
  O  O360  1  0.710936  0.002895  0.597059  1
  O  O361  1  0.447446  0.323593  0.601753  1
  O  O362  1  0.676462  0.123679  0.601749  1
  O  O363  1  0.447442  0.123689  0.601752  1
  O  O364  1  0.876357  0.323681  0.601753  1
  O  O365  1  0.457204  0.113962  0.526734  1
  O  O366  1  0.886241  0.343029  0.526725  1
  O  O367  1  0.657137  0.113928  0.526737  1
  O  O368  1  0.457225  0.342980  0.526719  1
  O  O369  1  0.742653  0.485208  0.612760  1
  O  O370  1  0.514792  0.257310  0.612760  1
  O  O371  1  0.742677  0.257313  0.612755  1
  O  O372  1  0.590904  0.181360  0.515734  1
  O  O373  1  0.818778  0.409233  0.515721  1
  O  O374  1  0.590897  0.409227  0.515715  1
  O  O375  1  0.228712  0.258573  0.519132  1
  O  O376  1  0.030400  0.258438  0.519122  1
  O  O377  1  0.104955  0.408053  0.609328  1
  O  O378  1  0.303248  0.408039  0.609326  1
  O  O379  1  0.041501  0.377502  0.531399  1
  O  O380  1  0.336322  0.377347  0.531387  1
  O  O381  1  0.292230  0.289275  0.597070  1
  O  O382  1  0.997250  0.289358  0.597069  1
  O  O383  1  0.762910  0.237227  0.514543  1
  O  O384  1  0.474745  0.237196  0.514526  1
  O  O385  1  0.570673  0.141163  0.613947  1
  O  O386  1  0.189329  0.378307  0.524164  1
  O  O387  1  0.144226  0.288290  0.604284  1
  O  O388  1  0.986597  0.493229  0.534426  1
  O  O389  1  0.506934  0.493178  0.534410  1
  O  O390  1  0.506939  0.013527  0.534435  1
  O  O391  1  0.346996  0.173431  0.594050  1
  O  O392  1  0.826668  0.173525  0.594049  1
  O  O393  1  0.858781  0.429326  0.613957  1
  O  O394  1  0.570650  0.429324  0.613955  1
  O  O395  1  0.151476  0.575641  0.350034  1
  O  O396  1  0.424264  0.575720  0.350032  1
  O  O397  1  0.424283  0.848368  0.350025  1
  O  O398  1  0.515328  0.757564  0.376513  1
  O  O399  1  0.242443  0.757441  0.376509  1
  O  O400  1  0.254849  0.509639  0.351357  1
  O  O401  1  0.490379  0.745093  0.351357  1
  O  O402  1  0.254859  0.745022  0.351351  1
  O  O403  1  0.411881  0.823500  0.375183  1
  O  O404  1  0.176291  0.588072  0.375189  1
  O  O405  1  0.411889  0.588186  0.375190  1
  O  O406  1  0.586223  0.686703  0.344218  1
  O  O407  1  0.313257  0.899300  0.344212  1
  O  O408  1  0.586252  0.899348  0.344216  1
  O  O409  1  0.100614  0.686695  0.344216  1
  O  O410  1  0.566177  0.919536  0.382318  1
  O  O411  1  0.080465  0.646500  0.382330  1
  O  O412  1  0.353516  0.919421  0.382310  1
  O  O413  1  0.566183  0.646476  0.382328  1
  O  O414  1  0.538199  0.666588  0.363274  1
  O  O415  1  0.333367  0.871308  0.363264  1
  O  O416  1  0.538202  0.871411  0.363270  1
  O  O417  1  0.128522  0.666589  0.363272  1
  O  O418  1  0.707876  0.997092  0.330433  1
  O  O419  1  0.289358  0.997089  0.330435  1
  O  O420  1  0.543102  0.886044  0.400773  1
  O  O421  1  0.114097  0.656981  0.400787  1
  O  O422  1  0.343105  0.885937  0.400770  1
  O  O423  1  0.543087  0.656931  0.400785  1
  O  O424  1  0.552645  0.676273  0.325758  1
  O  O425  1  0.323652  0.876178  0.325752  1
  O  O426  1  0.552638  0.876183  0.325759  1
  O  O427  1  0.123771  0.676286  0.325755  1
  O  O428  1  0.409435  0.818606  0.411773  1
  O  O429  1  0.181549  0.590741  0.411791  1
  O  O430  1  0.409417  0.590721  0.411788  1
  O  O431  1  0.257420  0.514695  0.314748  1
  O  O432  1  0.485254  0.742521  0.314754  1
  O  O433  1  0.257382  0.742558  0.314745  1
  O  O434  1  0.895135  0.591848  0.318182  1
  O  O435  1  0.696824  0.591858  0.318181  1
  O  O436  1  0.771837  0.741548  0.408388  1
  O  O437  1  0.970027  0.741407  0.408374  1
  O  O438  1  0.707870  0.710614  0.330439  1
  O  O439  1  0.002874  0.710606  0.330438  1
  O  O440  1  0.958879  0.622626  0.396120  1
  O  O441  1  0.663876  0.622460  0.396112  1
  O  O442  1  0.749430  0.749366  0.313036  1
  O  O443  1  0.855864  0.711609  0.323223  1
  O  O444  1  0.810908  0.621680  0.403345  1
  O  O445  1  0.653100  0.826460  0.333455  1
  O  O446  1  0.173493  0.826459  0.333454  1
  O  O447  1  0.013622  0.506769  0.393095  1
  O  O448  1  0.493248  0.506732  0.393084  1
  O  O449  1  0.493303  0.986431  0.393071  1
  O  O450  1  0.525559  0.762731  0.412967  1
  O  O451  1  0.237432  0.762769  0.412979  1
  O  O452  1  0.000000  0.749348  0.313035  1
  O  O453  1  0.141260  0.570553  0.313553  1
  O  O454  1  0.429429  0.570539  0.313554  1
  O  O455  1  0.429392  0.858673  0.313556  1
  O  O456  1  0.250655  0.000000  0.313032  1
  O  O457  1  0.749370  0.000000  0.313029  1
  O  O458  1  0.818630  0.909107  0.450515  1
  O  O459  1  0.091917  0.908994  0.450520  1
  O  O460  1  0.909926  0.818574  0.477000  1
  O  O461  1  0.922398  0.843391  0.451832  1
  O  O462  1  0.843562  0.921623  0.475674  1
  O  O463  1  0.079339  0.921599  0.475664  1
  O  O464  1  0.767931  0.747235  0.444715  1
  O  O465  1  0.980403  0.747217  0.444701  1
  O  O466  1  0.747587  0.979885  0.482814  1
  O  O467  1  0.020635  0.767313  0.482814  1
  O  O468  1  0.747860  0.767320  0.482809  1
  O  O469  1  0.233390  0.979779  0.482833  1
  O  O470  1  0.796052  0.795393  0.463756  1
  O  O471  1  -0.000000  0.795291  0.463755  1
  O  O472  1  0.096346  0.903954  0.414033  1
  O  O473  1  0.781039  0.990199  0.501271  1
  O  O474  1  0.009987  0.790343  0.501276  1
  O  O475  1  0.781153  0.790346  0.501274  1
  O  O476  1  0.209987  0.990200  0.501289  1
  O  O477  1  0.790737  0.780718  0.426257  1
  O  O478  1  0.990683  0.780761  0.426240  1
  O  O479  1  0.848439  0.923974  0.512279  1
  O  O480  1  0.076292  0.923989  0.512287  1
  O  O481  1  0.924346  0.848118  0.415244  1
  O  O482  1  0.561943  0.925141  0.418646  1
  O  O483  1  0.074933  0.636531  0.418655  1
  O  O484  1  0.363783  0.925341  0.418630  1
  O  O485  1  0.561877  0.636665  0.418661  1
  O  O486  1  0.636798  0.561734  0.508848  1
  O  O487  1  0.925415  0.561657  0.508851  1
  O  O488  1  0.669858  0.625523  0.430941  1
  O  O489  1  0.956334  0.625533  0.430922  1
  O  O490  1  0.625798  0.955736  0.496590  1
  O  O491  1  0.044211  0.669372  0.496598  1
  O  O492  1  0.625985  0.669473  0.496579  1
  O  O493  1  0.330854  0.955772  0.496624  1
  O  O494  1  0.666807  0.584116  0.413530  1
  O  O495  1  0.205818  0.000000  0.463762  1
  O  O496  1  0.477850  0.522511  0.503797  1
  O  O497  1  0.477934  0.954930  0.503831  1
  O  O498  1  0.045082  0.522262  0.503799  1
  O  O499  1  0.840540  0.680297  0.433944  1
  O  O500  1  0.680737  0.840027  0.493559  1
  O  O501  1  0.160223  0.839995  0.493595  1
  O  O502  1  0.904278  0.807835  0.513484  1
  O  O503  1  0.808196  0.903979  0.414061  1
  O  O504  1  0.584275  0.666735  0.513979  1
  O  O505  1  0.917393  0.583895  0.413523  1
  O  O506  1  0.795586  0.000000  0.463757  1
  O  O507  1  0.757629  0.515086  0.550993  1
  O  O508  1  0.646656  0.566062  0.545175  1
  O  O509  1  0.919607  0.566056  0.545181  1
  O  O510  1  0.899432  0.586162  0.583291  1
  O  O511  1  0.686826  0.586170  0.583291  1
  O  O512  1  0.666746  0.538152  0.564233  1
  O  O513  1  0.871519  0.538120  0.564234  1
  O  O514  1  0.762901  0.525362  0.514520  1
  O  O515  1  0.876275  0.552551  0.601752  1
  O  O516  1  0.676370  0.552560  0.601752  1
  O  O517  1  0.657136  0.542874  0.526718  1
  O  O518  1  0.886122  0.542895  0.526721  1
  O  O519  1  0.741917  0.969907  0.519143  1
  O  O520  1  0.030436  0.771473  0.519141  1
  O  O521  1  0.741721  0.771515  0.519141  1
  O  O522  1  0.228712  0.969767  0.519156  1
  O  O523  1  0.591936  0.696750  0.609327  1
  O  O524  1  0.303241  0.895047  0.609322  1
  O  O525  1  0.591851  0.894955  0.609330  1
  O  O526  1  0.104907  0.696730  0.609325  1
  O  O527  1  0.336351  0.958782  0.531420  1
  O  O528  1  0.622830  0.663802  0.531389  1
  O  O529  1  0.041343  0.663770  0.531403  1
  O  O530  1  0.622760  0.958702  0.531417  1
  O  O531  1  0.997174  0.707778  0.597071  1
  O  O532  1  0.710700  0.707789  0.597072  1
  O  O533  1  0.333700  0.917165  0.514026  1
  O  O534  1  0.082922  0.666457  0.513999  1
  O  O535  1  0.584462  0.917375  0.514004  1
  O  O536  1  0.189403  0.810688  0.524192  1
  O  O537  1  0.622046  0.810903  0.524183  1
  O  O538  1  0.144207  0.855778  0.604283  1
  O  O539  1  0.711665  0.855788  0.604282  1
  O  O540  1  0.826549  0.653009  0.594056  1
  O  O541  1  0.242447  0.484856  0.677952  1
  O  O542  1  0.100609  0.413726  0.645656  1
  O  O543  1  0.313249  0.413779  0.645656  1
  O  O544  1  0.353471  0.433930  0.683763  1
  O  O545  1  0.080477  0.433859  0.683773  1
  O  O546  1  0.128514  0.461758  0.664714  1
  O  O547  1  0.333356  0.461863  0.664711  1
  O  O548  1  0.343097  0.457072  0.702224  1
  O  O549  1  0.114124  0.457085  0.702230  1
  O  O550  1  0.123783  0.447334  0.627196  1
  O  O551  1  0.323680  0.447332  0.627194  1
  O  O552  1  0.408143  0.303148  0.619621  1
  O  O553  1  0.696835  0.104832  0.619616  1
  O  O554  1  0.408152  0.104826  0.619619  1
  O  O555  1  0.895144  0.303147  0.619620  1
  O  O556  1  0.258817  0.030173  0.709792  1
  O  O557  1  0.970093  0.228459  0.709807  1
  O  O558  1  0.258822  0.228460  0.709805  1
  O  O559  1  0.771900  0.030070  0.709809  1
  O  O560  1  0.002879  0.292102  0.631874  1
  O  O561  1  0.289367  0.292118  0.631877  1
  O  O562  1  0.663946  0.041262  0.697532  1
  O  O563  1  0.377419  0.336181  0.697542  1
  O  O564  1  0.958891  0.336173  0.697562  1
  O  O565  1  0.377389  0.041151  0.697517  1
  O  O566  1  0.855867  0.144095  0.624656  1
  O  O567  1  0.288392  0.144115  0.624661  1
  O  O568  1  0.811026  0.189074  0.704768  1
  O  O569  1  0.378544  0.189244  0.704746  1
  O  O570  1  0.173501  0.346879  0.634894  1
  O  O571  1  0.237412  0.474596  0.714427  1
  O  O572  1  0.666987  0.082585  0.714945  1
  O  O573  1  0.416433  0.082810  0.714908  1
  O  O574  1  0.416338  0.333488  0.714944  1
  O  O575  1  0.250654  0.250550  0.614473  1
  O  O576  1  0.000000  0.250554  0.614471  1
  O  O577  1  0.091256  0.181152  0.751945  1
  O  O578  1  0.182649  0.090891  0.778434  1
  O  O579  1  0.909566  0.090928  0.778429  1
  O  O580  1  0.157790  0.078253  0.753286  1
  O  O581  1  0.921851  0.078352  0.753273  1
  O  O582  1  0.079005  0.156719  0.777112  1
  O  O583  1  0.253753  0.020225  0.746122  1
  O  O584  1  0.980606  0.232656  0.746134  1
  O  O585  1  0.253250  0.232572  0.746132  1
  O  O586  1  0.767604  0.020132  0.746140  1
  O  O587  1  0.233221  0.252767  0.784244  1
  O  O588  1  0.020715  0.252818  0.784231  1
  O  O589  1  -0.000000  0.204632  0.765183  1
  O  O590  1  0.205284  0.204598  0.765190  1
  O  O591  1  0.192461  0.096016  0.814917  1
  O  O592  1  0.210041  0.219246  0.802705  1
  O  O593  1  0.010078  0.219251  0.802690  1
  O  O594  1  0.219714  0.009737  0.727664  1
  O  O595  1  0.990720  0.209641  0.727672  1
  O  O596  1  0.219553  0.209595  0.727671  1
  O  O597  1  0.790742  0.009820  0.727684  1
  O  O598  1  0.076331  0.151872  0.813701  1
  O  O599  1  0.152203  0.075951  0.716667  1
  O  O600  1  0.924343  0.075998  0.716671  1
  O  O601  1  0.363636  0.438291  0.720093  1
  O  O602  1  0.074953  0.438249  0.720101  1
  O  O603  1  0.438522  0.074645  0.810308  1
  O  O604  1  0.925303  0.363298  0.810289  1
  O  O605  1  0.636860  0.074819  0.810305  1
  O  O606  1  0.438492  0.363444  0.810289  1
  O  O607  1  0.375071  0.044244  0.732314  1
  O  O608  1  0.956465  0.330529  0.732374  1
  O  O609  1  0.374752  0.330599  0.732346  1
  O  O610  1  0.669979  0.044290  0.732361  1
  O  O611  1  0.330871  0.374439  0.798024  1
  O  O612  1  0.044434  0.374466  0.798010  1
  O  O613  1  0.904334  0.096003  0.814893  1
  O  O614  1  0.096325  0.192101  0.715464  1
  O  O615  1  0.522705  0.477703  0.725146  1
  O  O616  1  0.522921  0.045057  0.725109  1
  O  O617  1  0.955232  0.477471  0.725152  1
  O  O618  1  0.320182  0.159979  0.735347  1
  O  O619  1  0.840656  0.159994  0.735397  1
  O  O620  1  0.160323  0.319691  0.795002  1
  O  O621  1  0.917426  0.333235  0.714974  1
  O  O622  1  0.082786  0.415872  0.815422  1
  O  O623  1  0.333591  0.416083  0.815422  1
  O  O624  1  0.484980  0.242461  0.852437  1
  O  O625  1  0.757785  0.242424  0.852432  1
  O  O626  1  0.848555  0.424255  0.878911  1
  O  O627  1  0.575805  0.424258  0.878913  1
  O  O628  1  0.575908  0.151580  0.878920  1
  O  O629  1  0.588383  0.176440  0.853761  1
  O  O630  1  0.823773  0.411803  0.853754  1
  O  O631  1  0.588245  0.411830  0.853759  1
  O  O632  1  0.745195  0.490294  0.877588  1
  O  O633  1  0.509794  0.254880  0.877593  1
  O  O634  1  0.745293  0.254884  0.877589  1
  O  O635  1  0.434110  0.080498  0.846632  1
  O  O636  1  0.919762  0.353479  0.846620  1
  O  O637  1  0.646693  0.080432  0.846631  1
  O  O638  1  0.434016  0.353447  0.846615  1
  O  O639  1  0.413882  0.313206  0.884730  1
  O  O640  1  0.686921  0.100622  0.884728  1
  O  O641  1  0.413929  0.100595  0.884731  1
  O  O642  1  0.899536  0.313300  0.884729  1
  O  O643  1  0.462047  0.128593  0.865679  1
  O  O644  1  0.871630  0.333375  0.865672  1
  O  O645  1  0.666814  0.128573  0.865677  1
  O  O646  1  0.461919  0.333328  0.865674  1
  O  O647  1  0.457204  0.113962  0.828173  1
  O  O648  1  0.886241  0.343029  0.828163  1
  O  O649  1  0.657137  0.113928  0.828176  1
  O  O650  1  0.457225  0.342980  0.828158  1
  O  O651  1  0.590904  0.181360  0.817173  1
  O  O652  1  0.818778  0.409233  0.817160  1
  O  O653  1  0.590897  0.409227  0.817154  1
  O  O654  1  0.228712  0.258573  0.820571  1
  O  O655  1  0.030400  0.258438  0.820561  1
  O  O656  1  0.041501  0.377502  0.832838  1
  O  O657  1  0.336322  0.377347  0.832826  1
  O  O658  1  0.762910  0.237227  0.815982  1
  O  O659  1  0.474745  0.237196  0.815965  1
  O  O660  1  0.189329  0.378307  0.825603  1
  O  O661  1  0.986597  0.493229  0.835865  1
  O  O662  1  0.506934  0.493178  0.835849  1
  O  O663  1  0.506939  0.013527  0.835874  1
  O  O664  1  0.151476  0.575641  0.651473  1
  O  O665  1  0.424264  0.575720  0.651471  1
  O  O666  1  0.424283  0.848368  0.651464  1
  O  O667  1  0.515328  0.757564  0.677952  1
  O  O668  1  0.242443  0.757441  0.677947  1
  O  O669  1  0.254849  0.509639  0.652795  1
  O  O670  1  0.490379  0.745093  0.652796  1
  O  O671  1  0.254859  0.745022  0.652790  1
  O  O672  1  0.411881  0.823500  0.676622  1
  O  O673  1  0.176291  0.588072  0.676627  1
  O  O674  1  0.411889  0.588186  0.676629  1
  O  O675  1  0.586223  0.686703  0.645657  1
  O  O676  1  0.313257  0.899300  0.645650  1
  O  O677  1  0.586252  0.899348  0.645655  1
  O  O678  1  0.100614  0.686695  0.645655  1
  O  O679  1  0.566177  0.919536  0.683757  1
  O  O680  1  0.080465  0.646500  0.683769  1
  O  O681  1  0.353516  0.919421  0.683748  1
  O  O682  1  0.566183  0.646476  0.683767  1
  O  O683  1  0.538199  0.666588  0.664713  1
  O  O684  1  0.333367  0.871308  0.664703  1
  O  O685  1  0.538202  0.871411  0.664709  1
  O  O686  1  0.128522  0.666589  0.664711  1
  O  O687  1  0.707876  0.997092  0.631872  1
  O  O688  1  0.289358  0.997089  0.631874  1
  O  O689  1  0.543102  0.886044  0.702212  1
  O  O690  1  0.114097  0.656981  0.702226  1
  O  O691  1  0.343105  0.885937  0.702208  1
  O  O692  1  0.543087  0.656931  0.702224  1
  O  O693  1  0.552645  0.676273  0.627197  1
  O  O694  1  0.323652  0.876178  0.627191  1
  O  O695  1  0.552638  0.876183  0.627198  1
  O  O696  1  0.123771  0.676286  0.627194  1
  O  O697  1  0.409435  0.818606  0.713212  1
  O  O698  1  0.181549  0.590741  0.713230  1
  O  O699  1  0.409417  0.590721  0.713227  1
  O  O700  1  0.257420  0.514695  0.616187  1
  O  O701  1  0.485254  0.742521  0.616193  1
  O  O702  1  0.257382  0.742558  0.616184  1
  O  O703  1  0.895135  0.591848  0.619621  1
  O  O704  1  0.696824  0.591858  0.619620  1
  O  O705  1  0.771837  0.741548  0.709827  1
  O  O706  1  0.970027  0.741407  0.709813  1
  O  O707  1  0.707870  0.710614  0.631877  1
  O  O708  1  0.002874  0.710606  0.631877  1
  O  O709  1  0.958879  0.622626  0.697559  1
  O  O710  1  0.663876  0.622460  0.697551  1
  O  O711  1  0.749430  0.749366  0.614474  1
  O  O712  1  0.855864  0.711609  0.624662  1
  O  O713  1  0.810908  0.621680  0.704784  1
  O  O714  1  0.653100  0.826460  0.634894  1
  O  O715  1  0.173493  0.826459  0.634893  1
  O  O716  1  0.013622  0.506769  0.694534  1
  O  O717  1  0.493248  0.506732  0.694523  1
  O  O718  1  0.493303  0.986431  0.694509  1
  O  O719  1  0.525559  0.762731  0.714406  1
  O  O720  1  0.237432  0.762769  0.714418  1
  O  O721  1  -0.000000  0.749348  0.614474  1
  O  O722  1  0.141260  0.570553  0.614992  1
  O  O723  1  0.429429  0.570539  0.614993  1
  O  O724  1  0.429392  0.858673  0.614994  1
  O  O725  1  0.250655  0.000000  0.614470  1
  O  O726  1  0.749370  0.000000  0.614468  1
  O  O727  1  0.818630  0.909107  0.751953  1
  O  O728  1  0.091917  0.908994  0.751959  1
  O  O729  1  0.909926  0.818574  0.778439  1
  O  O730  1  0.922398  0.843391  0.753271  1
  O  O731  1  0.843562  0.921623  0.777113  1
  O  O732  1  0.079339  0.921599  0.777103  1
  O  O733  1  0.767931  0.747235  0.746154  1
  O  O734  1  0.980403  0.747217  0.746140  1
  O  O735  1  0.747587  0.979885  0.784253  1
  O  O736  1  0.020635  0.767313  0.784253  1
  O  O737  1  0.747860  0.767320  0.784248  1
  O  O738  1  0.233390  0.979779  0.784272  1
  O  O739  1  0.796052  0.795393  0.765195  1
  O  O740  1  -0.000000  0.795291  0.765194  1
  O  O741  1  0.096346  0.903954  0.715471  1
  O  O742  1  0.781039  0.990199  0.802709  1
  O  O743  1  0.009987  0.790343  0.802715  1
  O  O744  1  0.781153  0.790346  0.802712  1
  O  O745  1  0.209987  0.990200  0.802727  1
  O  O746  1  0.790737  0.780718  0.727696  1
  O  O747  1  0.990683  0.780761  0.727679  1
  O  O748  1  0.848439  0.923974  0.813718  1
  O  O749  1  0.076292  0.923989  0.813725  1
  O  O750  1  0.924346  0.848118  0.716683  1
  O  O751  1  0.561943  0.925141  0.720084  1
  O  O752  1  0.074933  0.636531  0.720094  1
  O  O753  1  0.363783  0.925341  0.720069  1
  O  O754  1  0.561877  0.636665  0.720100  1
  O  O755  1  0.636798  0.561734  0.810287  1
  O  O756  1  0.925415  0.561657  0.810290  1
  O  O757  1  0.669858  0.625523  0.732379  1
  O  O758  1  0.956334  0.625533  0.732360  1
  O  O759  1  0.625798  0.955736  0.798029  1
  O  O760  1  0.044211  0.669372  0.798037  1
  O  O761  1  0.625985  0.669473  0.798017  1
  O  O762  1  0.330854  0.955772  0.798063  1
  O  O763  1  0.666807  0.584116  0.714968  1
  O  O764  1  0.205818  0.000000  0.765201  1
  O  O765  1  0.477850  0.522511  0.805236  1
  O  O766  1  0.477934  0.954930  0.805269  1
  O  O767  1  0.045082  0.522262  0.805238  1
  O  O768  1  0.840540  0.680297  0.735383  1
  O  O769  1  0.680737  0.840027  0.794997  1
  O  O770  1  0.160223  0.839995  0.795034  1
  O  O771  1  0.904278  0.807835  0.814923  1
  O  O772  1  0.808196  0.903979  0.715500  1
  O  O773  1  0.584275  0.666735  0.815418  1
  O  O774  1  0.917393  0.583895  0.714962  1
  O  O775  1  0.795586  0.000000  0.765196  1
  O  O776  1  0.757629  0.515086  0.852432  1
  O  O777  1  0.646656  0.566062  0.846614  1
  O  O778  1  0.919607  0.566056  0.846620  1
  O  O779  1  0.899432  0.586162  0.884730  1
  O  O780  1  0.686826  0.586170  0.884730  1
  O  O781  1  0.666746  0.538152  0.865672  1
  O  O782  1  0.871519  0.538120  0.865672  1
  O  O783  1  0.762901  0.525362  0.815959  1
  O  O784  1  0.657136  0.542874  0.828157  1
  O  O785  1  0.886122  0.542895  0.828160  1
  O  O786  1  0.741917  0.969907  0.820582  1
  O  O787  1  0.030436  0.771473  0.820580  1
  O  O788  1  0.741721  0.771515  0.820580  1
  O  O789  1  0.228712  0.969767  0.820595  1
  O  O790  1  0.336351  0.958782  0.832859  1
  O  O791  1  0.622830  0.663802  0.832828  1
  O  O792  1  0.041343  0.663770  0.832842  1
  O  O793  1  0.622760  0.958702  0.832856  1
  O  O794  1  0.333700  0.917165  0.815465  1
  O  O795  1  0.082922  0.666457  0.815438  1
  O  O796  1  0.584462  0.917375  0.815442  1
  O  O797  1  0.189403  0.810688  0.825630  1
  O  O798  1  0.622046  0.810903  0.825622  1
  Si  Si799  1  0.154807  0.488644  0.109833  1
  Si  Si800  1  0.334055  0.488630  0.109831  1
  Si  Si801  1  0.391162  0.430541  0.091281  1
  Si  Si802  1  0.039462  0.430530  0.091294  1
  Si  Si803  1  0.154453  0.487522  0.050756  1
  Si  Si804  1  0.333175  0.487589  0.050753  1
  Si  Si805  1  0.333538  0.487821  0.072912  1
  Si  Si806  1  0.154257  0.487707  0.072916  1
  Si  Si807  1  0.731237  0.089985  0.103426  1
  Si  Si808  1  0.359389  0.269099  0.103434  1
  Si  Si809  1  0.910012  0.268983  0.103451  1
  Si  Si810  1  0.359345  0.090191  0.103410  1
  Si  Si811  1  0.822261  0.000000  0.114327  1
  Si  Si812  1  0.821457  0.000000  0.151236  1
  Si  Si813  1  0.178966  0.000000  0.114308  1
  Si  Si814  1  -0.000000  0.178096  0.114308  1
  Si  Si815  1  0.178913  0.178039  0.114310  1
  Si  Si816  1  -0.000000  0.178611  0.151227  1
  Si  Si817  1  0.179552  0.178529  0.151235  1
  Si  Si818  1  0.179427  0.178883  0.173394  1
  Si  Si819  1  -0.000000  0.178917  0.173387  1
  Si  Si820  1  0.423926  0.025946  0.120668  1
  Si  Si821  1  0.974419  0.397614  0.120727  1
  Si  Si822  1  0.423713  0.397801  0.120705  1
  Si  Si823  1  0.602712  0.025742  0.120709  1
  Si  Si824  1  0.397986  0.423486  0.203915  1
  Si  Si825  1  0.025873  0.423208  0.203903  1
  Si  Si826  1  0.294245  0.236147  0.132849  1
  Si  Si827  1  0.764299  0.057964  0.132872  1
  Si  Si828  1  0.942761  0.236153  0.132873  1
  Si  Si829  1  0.294469  0.057934  0.132836  1
  Si  Si830  1  0.058261  0.293896  0.191752  1
  Si  Si831  1  0.236541  0.293826  0.191761  1
  Si  Si832  1  0.178430  0.178623  0.210311  1
  Si  Si833  1  -0.000000  0.178602  0.210294  1
  Si  Si834  1  0.180055  0.000000  0.151241  1
  Si  Si835  1  0.488805  0.333866  0.214799  1
  Si  Si836  1  0.487996  0.154365  0.251723  1
  Si  Si837  1  0.845905  0.333532  0.251714  1
  Si  Si838  1  0.666672  0.154326  0.251719  1
  Si  Si839  1  0.487867  0.333521  0.251717  1
  Si  Si840  1  0.487683  0.333163  0.273875  1
  Si  Si841  1  0.666976  0.154505  0.273877  1
  Si  Si842  1  0.487760  0.154508  0.273881  1
  Si  Si843  1  0.845667  0.333203  0.273873  1
  Si  Si844  1  0.090254  0.359031  0.221184  1
  Si  Si845  1  0.269203  0.359155  0.221178  1
  Si  Si846  1  0.243254  0.307462  0.304396  1
  Si  Si847  1  0.064384  0.307482  0.304397  1
  Si  Si848  1  0.430682  0.391108  0.233337  1
  Si  Si849  1  0.608994  0.039302  0.233360  1
  Si  Si850  1  0.430716  0.039387  0.233361  1
  Si  Si851  1  0.960863  0.391182  0.233348  1
  Si  Si852  1  0.372832  0.097183  0.292248  1
  Si  Si853  1  0.902892  0.275614  0.292248  1
  Si  Si854  1  0.724623  0.097244  0.292245  1
  Si  Si855  1  0.372837  0.275509  0.292249  1
  Si  Si856  1  0.488056  0.332668  0.310798  1
  Si  Si857  1  0.667328  0.155220  0.310792  1
  Si  Si858  1  0.488069  0.155221  0.310796  1
  Si  Si859  1  0.844763  0.332689  0.310798  1
  Si  Si860  1  0.488804  0.154603  0.214812  1
  Si  Si861  1  0.845523  0.333885  0.214808  1
  Si  Si862  1  0.666264  0.154629  0.214819  1
  Si  Si863  1  0.512428  0.666771  0.050756  1
  Si  Si864  1  0.333188  0.845402  0.050745  1
  Si  Si865  1  0.512440  0.845472  0.050752  1
  Si  Si866  1  0.154463  0.666744  0.050754  1
  Si  Si867  1  0.512296  0.845652  0.072911  1
  Si  Si868  1  0.154248  0.666395  0.072913  1
  Si  Si869  1  0.333547  0.845541  0.072904  1
  Si  Si870  1  0.512304  0.666439  0.072916  1
  Si  Si871  1  0.909936  0.640824  0.103451  1
  Si  Si872  1  0.731106  0.640950  0.103449  1
  Si  Si873  1  0.569561  0.608779  0.091285  1
  Si  Si874  1  0.391204  0.960546  0.091264  1
  Si  Si875  1  0.569583  0.960660  0.091272  1
  Si  Si876  1  0.039447  0.608846  0.091291  1
  Si  Si877  1  0.511528  0.845340  0.109814  1
  Si  Si878  1  0.154818  0.666102  0.109828  1
  Si  Si879  1  0.334087  0.845353  0.109814  1
  Si  Si880  1  0.511509  0.666070  0.109824  1
  Si  Si881  1  -0.000000  0.821361  0.114317  1
  Si  Si882  1  0.179755  0.000000  0.173399  1
  Si  Si883  1  0.821676  0.821872  0.210322  1
  Si  Si884  1  0.821946  0.821165  0.151237  1
  Si  Si885  1  -0.000000  0.821108  0.151235  1
  Si  Si886  1  0.822259  0.821387  0.114337  1
  Si  Si887  1  -0.000000  0.821290  0.173395  1
  Si  Si888  1  0.821687  0.821315  0.173399  1
  Si  Si889  1  0.178391  0.000000  0.210329  1
  Si  Si890  1  0.602548  0.576769  0.120731  1
  Si  Si891  1  0.974387  0.576490  0.120714  1
  Si  Si892  1  0.577026  0.974226  0.203924  1
  Si  Si893  1  0.025980  0.602158  0.203921  1
  Si  Si894  1  0.576888  0.602370  0.203908  1
  Si  Si895  1  0.398047  0.974050  0.203950  1
  Si  Si896  1  0.942629  0.706168  0.132867  1
  Si  Si897  1  0.764279  0.706089  0.132879  1
  Si  Si898  1  0.706641  0.763844  0.191760  1
  Si  Si899  1  0.236523  0.942046  0.191796  1
  Si  Si900  1  0.058118  0.763804  0.191779  1
  Si  Si901  1  0.706456  0.942073  0.191766  1
  Si  Si902  1  0.821724  0.000000  0.210311  1
  Si  Si903  1  -0.000000  0.821896  0.210322  1
  Si  Si904  1  0.821397  0.000000  0.173397  1
  Si  Si905  1  0.960708  0.569425  0.233349  1
  Si  Si906  1  0.667292  0.511938  0.310798  1
  Si  Si907  1  0.844741  0.511932  0.310798  1
  Si  Si908  1  0.902794  0.627177  0.292251  1
  Si  Si909  1  0.845508  0.511325  0.214798  1
  Si  Si910  1  0.666254  0.511323  0.214798  1
  Si  Si911  1  0.724476  0.627186  0.292251  1
  Si  Si912  1  0.609015  0.569423  0.233337  1
  Si  Si913  1  0.666573  0.512201  0.251715  1
  Si  Si914  1  0.845778  0.512164  0.251716  1
  Si  Si915  1  0.845582  0.512377  0.273874  1
  Si  Si916  1  0.666896  0.512385  0.273874  1
  Si  Si917  1  0.269249  0.909743  0.221212  1
  Si  Si918  1  0.641130  0.730998  0.221185  1
  Si  Si919  1  0.090381  0.730844  0.221194  1
  Si  Si920  1  0.641327  0.909983  0.221207  1
  Si  Si921  1  0.064349  0.756750  0.304397  1
  Si  Si922  1  0.692442  0.935613  0.304390  1
  Si  Si923  1  0.243242  0.935628  0.304394  1
  Si  Si924  1  0.692510  0.756769  0.304398  1
  Si  Si925  1  0.154807  0.488644  0.411272  1
  Si  Si926  1  0.334055  0.488630  0.411270  1
  Si  Si927  1  0.391162  0.430541  0.392720  1
  Si  Si928  1  0.039462  0.430530  0.392732  1
  Si  Si929  1  0.332770  0.487949  0.315272  1
  Si  Si930  1  0.155328  0.487965  0.315273  1
  Si  Si931  1  0.097256  0.372705  0.333819  1
  Si  Si932  1  0.275584  0.372718  0.333820  1
  Si  Si933  1  0.154453  0.487522  0.352195  1
  Si  Si934  1  0.333175  0.487589  0.352192  1
  Si  Si935  1  0.333538  0.487821  0.374351  1
  Si  Si936  1  0.154257  0.487707  0.374355  1
  Si  Si937  1  0.935715  0.243137  0.321670  1
  Si  Si938  1  0.307572  0.064264  0.321670  1
  Si  Si939  1  0.756829  0.064243  0.321666  1
  Si  Si940  1  0.307567  0.243148  0.321673  1
  Si  Si941  1  0.731237  0.089985  0.404864  1
  Si  Si942  1  0.359389  0.269099  0.404872  1
  Si  Si943  1  0.910012  0.268983  0.404889  1
  Si  Si944  1  0.359345  0.090191  0.404848  1
  Si  Si945  1  0.822261  0.000000  0.415766  1
  Si  Si946  1  0.821457  0.000000  0.452675  1
  Si  Si947  1  0.178966  0.000000  0.415747  1
  Si  Si948  1  -0.000000  0.178096  0.415747  1
  Si  Si949  1  0.178913  0.178039  0.415749  1
  Si  Si950  1  -0.000000  0.178611  0.452666  1
  Si  Si951  1  0.179552  0.178529  0.452673  1
  Si  Si952  1  0.179427  0.178883  0.474833  1
  Si  Si953  1  -0.000000  0.178917  0.474826  1
  Si  Si954  1  0.423926  0.025946  0.422107  1
  Si  Si955  1  0.974419  0.397614  0.422166  1
  Si  Si956  1  0.423713  0.397801  0.422144  1
  Si  Si957  1  0.602712  0.025742  0.422148  1
  Si  Si958  1  0.397986  0.423486  0.505354  1
  Si  Si959  1  0.025873  0.423208  0.505342  1
  Si  Si960  1  0.294245  0.236147  0.434288  1
  Si  Si961  1  0.764299  0.057964  0.434310  1
  Si  Si962  1  0.942761  0.236153  0.434312  1
  Si  Si963  1  0.294469  0.057934  0.434275  1
  Si  Si964  1  0.058261  0.293896  0.493191  1
  Si  Si965  1  0.236541  0.293826  0.493200  1
  Si  Si966  1  0.178430  0.178623  0.511750  1
  Si  Si967  1  -0.000000  0.178602  0.511733  1
  Si  Si968  1  0.180055  0.000000  0.452679  1
  Si  Si969  1  0.488805  0.333866  0.516238  1
  Si  Si970  1  0.487996  0.154365  0.553162  1
  Si  Si971  1  0.845905  0.333532  0.553152  1
  Si  Si972  1  0.666672  0.154326  0.553158  1
  Si  Si973  1  0.487867  0.333521  0.553155  1
  Si  Si974  1  0.487683  0.333163  0.575314  1
  Si  Si975  1  0.666976  0.154505  0.575316  1
  Si  Si976  1  0.487760  0.154508  0.575320  1
  Si  Si977  1  0.845667  0.333203  0.575311  1
  Si  Si978  1  0.090254  0.359031  0.522623  1
  Si  Si979  1  0.269203  0.359155  0.522617  1
  Si  Si980  1  0.243254  0.307462  0.605835  1
  Si  Si981  1  0.064384  0.307482  0.605836  1
  Si  Si982  1  0.430682  0.391108  0.534776  1
  Si  Si983  1  0.608994  0.039302  0.534799  1
  Si  Si984  1  0.430716  0.039387  0.534800  1
  Si  Si985  1  0.960863  0.391182  0.534787  1
  Si  Si986  1  0.372832  0.097183  0.593687  1
  Si  Si987  1  0.902892  0.275614  0.593687  1
  Si  Si988  1  0.724623  0.097244  0.593684  1
  Si  Si989  1  0.372837  0.275509  0.593687  1
  Si  Si990  1  0.488056  0.332668  0.612237  1
  Si  Si991  1  0.667328  0.155220  0.612230  1
  Si  Si992  1  0.488069  0.155221  0.612235  1
  Si  Si993  1  0.844763  0.332689  0.612237  1
  Si  Si994  1  0.488804  0.154603  0.516251  1
  Si  Si995  1  0.845523  0.333885  0.516247  1
  Si  Si996  1  0.666264  0.154629  0.516258  1
  Si  Si997  1  0.512428  0.666771  0.352195  1
  Si  Si998  1  0.333188  0.845402  0.352184  1
  Si  Si999  1  0.512440  0.845472  0.352191  1
  Si  Si1000  1  0.154463  0.666744  0.352193  1
  Si  Si1001  1  0.512296  0.845652  0.374349  1
  Si  Si1002  1  0.154248  0.666395  0.374352  1
  Si  Si1003  1  0.333547  0.845541  0.374342  1
  Si  Si1004  1  0.512304  0.666439  0.374355  1
  Si  Si1005  1  0.756836  0.692434  0.321671  1
  Si  Si1006  1  0.935713  0.692425  0.321672  1
  Si  Si1007  1  0.909936  0.640824  0.404890  1
  Si  Si1008  1  0.731106  0.640950  0.404888  1
  Si  Si1009  1  0.627287  0.902717  0.333819  1
  Si  Si1010  1  0.097252  0.724378  0.333819  1
  Si  Si1011  1  0.275570  0.902704  0.333817  1
  Si  Si1012  1  0.627263  0.724380  0.333821  1
  Si  Si1013  1  0.569561  0.608779  0.392724  1
  Si  Si1014  1  0.391204  0.960546  0.392703  1
  Si  Si1015  1  0.569583  0.960660  0.392711  1
  Si  Si1016  1  0.039447  0.608846  0.392730  1
  Si  Si1017  1  0.511528  0.845340  0.411252  1
  Si  Si1018  1  0.154818  0.666102  0.411267  1
  Si  Si1019  1  0.334087  0.845353  0.411253  1
  Si  Si1020  1  0.511509  0.666070  0.411263  1
  Si  Si1021  1  0.512024  0.667188  0.315274  1
  Si  Si1022  1  0.332746  0.844646  0.315269  1
  Si  Si1023  1  0.511981  0.844612  0.315277  1
  Si  Si1024  1  0.155293  0.667199  0.315270  1
  Si  Si1025  1  -0.000000  0.821361  0.415756  1
  Si  Si1026  1  0.179755  0.000000  0.474838  1
  Si  Si1027  1  0.821676  0.821872  0.511761  1
  Si  Si1028  1  0.821946  0.821165  0.452676  1
  Si  Si1029  1  -0.000000  0.821108  0.452674  1
  Si  Si1030  1  0.822259  0.821387  0.415776  1
  Si  Si1031  1  -0.000000  0.821290  0.474834  1
  Si  Si1032  1  0.821687  0.821315  0.474838  1
  Si  Si1033  1  0.178391  0.000000  0.511768  1
  Si  Si1034  1  0.602548  0.576769  0.422170  1
  Si  Si1035  1  0.974387  0.576490  0.422153  1
  Si  Si1036  1  0.577026  0.974226  0.505363  1
  Si  Si1037  1  0.025980  0.602158  0.505360  1
  Si  Si1038  1  0.576888  0.602370  0.505347  1
  Si  Si1039  1  0.398047  0.974050  0.505389  1
  Si  Si1040  1  0.942629  0.706168  0.434306  1
  Si  Si1041  1  0.764279  0.706089  0.434318  1
  Si  Si1042  1  0.706641  0.763844  0.493199  1
  Si  Si1043  1  0.236523  0.942046  0.493234  1
  Si  Si1044  1  0.058118  0.763804  0.493218  1
  Si  Si1045  1  0.706456  0.942073  0.493205  1
  Si  Si1046  1  0.821724  0.000000  0.511750  1
  Si  Si1047  1  -0.000000  0.821896  0.511761  1
  Si  Si1048  1  0.821397  0.000000  0.474836  1
  Si  Si1049  1  0.960708  0.569425  0.534788  1
  Si  Si1050  1  0.667292  0.511938  0.612237  1
  Si  Si1051  1  0.844741  0.511932  0.612237  1
  Si  Si1052  1  0.902794  0.627177  0.593690  1
  Si  Si1053  1  0.845508  0.511325  0.516237  1
  Si  Si1054  1  0.666254  0.511323  0.516236  1
  Si  Si1055  1  0.724476  0.627186  0.593690  1
  Si  Si1056  1  0.609015  0.569423  0.534776  1
  Si  Si1057  1  0.666573  0.512201  0.553154  1
  Si  Si1058  1  0.845778  0.512164  0.553154  1
  Si  Si1059  1  0.845582  0.512377  0.575313  1
  Si  Si1060  1  0.666896  0.512385  0.575313  1
  Si  Si1061  1  0.269249  0.909743  0.522650  1
  Si  Si1062  1  0.641130  0.730998  0.522624  1
  Si  Si1063  1  0.090381  0.730844  0.522633  1
  Si  Si1064  1  0.641327  0.909983  0.522646  1
  Si  Si1065  1  0.064349  0.756750  0.605835  1
  Si  Si1066  1  0.692442  0.935613  0.605829  1
  Si  Si1067  1  0.243242  0.935628  0.605833  1
  Si  Si1068  1  0.692510  0.756769  0.605837  1
  Si  Si1069  1  0.154807  0.488644  0.712711  1
  Si  Si1070  1  0.334055  0.488630  0.712708  1
  Si  Si1071  1  0.391162  0.430541  0.694159  1
  Si  Si1072  1  0.039462  0.430530  0.694171  1
  Si  Si1073  1  0.332770  0.487949  0.616710  1
  Si  Si1074  1  0.155328  0.487965  0.616712  1
  Si  Si1075  1  0.097256  0.372705  0.635258  1
  Si  Si1076  1  0.275584  0.372718  0.635259  1
  Si  Si1077  1  0.154453  0.487522  0.653634  1
  Si  Si1078  1  0.333175  0.487589  0.653631  1
  Si  Si1079  1  0.333538  0.487821  0.675790  1
  Si  Si1080  1  0.154257  0.487707  0.675793  1
  Si  Si1081  1  0.935715  0.243137  0.623108  1
  Si  Si1082  1  0.307572  0.064264  0.623108  1
  Si  Si1083  1  0.756829  0.064243  0.623105  1
  Si  Si1084  1  0.307567  0.243148  0.623112  1
  Si  Si1085  1  0.731237  0.089985  0.706303  1
  Si  Si1086  1  0.359389  0.269099  0.706311  1
  Si  Si1087  1  0.910012  0.268983  0.706328  1
  Si  Si1088  1  0.359345  0.090191  0.706287  1
  Si  Si1089  1  0.822261  0.000000  0.717205  1
  Si  Si1090  1  0.821457  0.000000  0.754114  1
  Si  Si1091  1  0.178966  0.000000  0.717186  1
  Si  Si1092  1  -0.000000  0.178096  0.717185  1
  Si  Si1093  1  0.178913  0.178039  0.717188  1
  Si  Si1094  1  -0.000000  0.178611  0.754104  1
  Si  Si1095  1  0.179552  0.178529  0.754112  1
  Si  Si1096  1  0.179427  0.178883  0.776272  1
  Si  Si1097  1  -0.000000  0.178917  0.776265  1
  Si  Si1098  1  0.423926  0.025946  0.723546  1
  Si  Si1099  1  0.974419  0.397614  0.723605  1
  Si  Si1100  1  0.423713  0.397801  0.723583  1
  Si  Si1101  1  0.602712  0.025742  0.723587  1
  Si  Si1102  1  0.397986  0.423486  0.806792  1
  Si  Si1103  1  0.025873  0.423208  0.806781  1
  Si  Si1104  1  0.294245  0.236147  0.735727  1
  Si  Si1105  1  0.764299  0.057964  0.735749  1
  Si  Si1106  1  0.942761  0.236153  0.735750  1
  Si  Si1107  1  0.294469  0.057934  0.735713  1
  Si  Si1108  1  0.058261  0.293896  0.794630  1
  Si  Si1109  1  0.236541  0.293826  0.794639  1
  Si  Si1110  1  0.178430  0.178623  0.813189  1
  Si  Si1111  1  0.000000  0.178602  0.813172  1
  Si  Si1112  1  0.180055  0.000000  0.754118  1
  Si  Si1113  1  0.488805  0.333866  0.817677  1
  Si  Si1114  1  0.487996  0.154365  0.854601  1
  Si  Si1115  1  0.845905  0.333532  0.854591  1
  Si  Si1116  1  0.666672  0.154326  0.854597  1
  Si  Si1117  1  0.487867  0.333521  0.854594  1
  Si  Si1118  1  0.487683  0.333163  0.876753  1
  Si  Si1119  1  0.666976  0.154505  0.876755  1
  Si  Si1120  1  0.487760  0.154508  0.876759  1
  Si  Si1121  1  0.845667  0.333203  0.876750  1
  Si  Si1122  1  0.090254  0.359031  0.824062  1
  Si  Si1123  1  0.269203  0.359155  0.824055  1
  Si  Si1124  1  0.430682  0.391108  0.836215  1
  Si  Si1125  1  0.608994  0.039302  0.836238  1
  Si  Si1126  1  0.430716  0.039387  0.836239  1
  Si  Si1127  1  0.960863  0.391182  0.836225  1
  Si  Si1128  1  0.488804  0.154603  0.817689  1
  Si  Si1129  1  0.845523  0.333885  0.817686  1
  Si  Si1130  1  0.666264  0.154629  0.817697  1
  Si  Si1131  1  0.512428  0.666771  0.653634  1
  Si  Si1132  1  0.333188  0.845402  0.653623  1
  Si  Si1133  1  0.512440  0.845472  0.653630  1
  Si  Si1134  1  0.154463  0.666744  0.653632  1
  Si  Si1135  1  0.512296  0.845652  0.675788  1
  Si  Si1136  1  0.154248  0.666395  0.675791  1
  Si  Si1137  1  0.333547  0.845541  0.675781  1
  Si  Si1138  1  0.512304  0.666439  0.675793  1
  Si  Si1139  1  0.756836  0.692434  0.623110  1
  Si  Si1140  1  0.935713  0.692425  0.623111  1
  Si  Si1141  1  0.909936  0.640824  0.706329  1
  Si  Si1142  1  0.731106  0.640950  0.706327  1
  Si  Si1143  1  0.627287  0.902717  0.635257  1
  Si  Si1144  1  0.097252  0.724378  0.635258  1
  Si  Si1145  1  0.275570  0.902704  0.635256  1
  Si  Si1146  1  0.627263  0.724380  0.635260  1
  Si  Si1147  1  0.569561  0.608779  0.694163  1
  Si  Si1148  1  0.391204  0.960546  0.694141  1
  Si  Si1149  1  0.569583  0.960660  0.694150  1
  Si  Si1150  1  0.039447  0.608846  0.694168  1
  Si  Si1151  1  0.511528  0.845340  0.712691  1
  Si  Si1152  1  0.154818  0.666102  0.712706  1
  Si  Si1153  1  0.334087  0.845353  0.712692  1
  Si  Si1154  1  0.511509  0.666070  0.712702  1
  Si  Si1155  1  0.512024  0.667188  0.616713  1
  Si  Si1156  1  0.332746  0.844646  0.616707  1
  Si  Si1157  1  0.511981  0.844612  0.616716  1
  Si  Si1158  1  0.155293  0.667199  0.616709  1
  Si  Si1159  1  0.000000  0.821361  0.717195  1
  Si  Si1160  1  0.179755  0.000000  0.776277  1
  Si  Si1161  1  0.821676  0.821872  0.813200  1
  Si  Si1162  1  0.821946  0.821165  0.754115  1
  Si  Si1163  1  -0.000000  0.821108  0.754113  1
  Si  Si1164  1  0.822259  0.821387  0.717214  1
  Si  Si1165  1  -0.000000  0.821290  0.776273  1
  Si  Si1166  1  0.821687  0.821315  0.776277  1
  Si  Si1167  1  0.178391  0.000000  0.813207  1
  Si  Si1168  1  0.602548  0.576769  0.723609  1
  Si  Si1169  1  0.974387  0.576490  0.723592  1
  Si  Si1170  1  0.577026  0.974226  0.806802  1
  Si  Si1171  1  0.025980  0.602158  0.806799  1
  Si  Si1172  1  0.576888  0.602370  0.806786  1
  Si  Si1173  1  0.398047  0.974050  0.806828  1
  Si  Si1174  1  0.942629  0.706168  0.735745  1
  Si  Si1175  1  0.764279  0.706089  0.735756  1
  Si  Si1176  1  0.706641  0.763844  0.794638  1
  Si  Si1177  1  0.236523  0.942046  0.794673  1
  Si  Si1178  1  0.058118  0.763804  0.794657  1
  Si  Si1179  1  0.706456  0.942073  0.794643  1
  Si  Si1180  1  0.821724  0.000000  0.813189  1
  Si  Si1181  1  -0.000000  0.821896  0.813200  1
  Si  Si1182  1  0.821397  0.000000  0.776275  1
  Si  Si1183  1  0.960708  0.569425  0.836226  1
  Si  Si1184  1  0.845508  0.511325  0.817676  1
  Si  Si1185  1  0.666254  0.511323  0.817675  1
  Si  Si1186  1  0.609015  0.569423  0.836215  1
  Si  Si1187  1  0.666573  0.512201  0.854593  1
  Si  Si1188  1  0.845778  0.512164  0.854593  1
  Si  Si1189  1  0.845582  0.512377  0.876752  1
  Si  Si1190  1  0.666896  0.512385  0.876752  1
  Si  Si1191  1  0.269249  0.909743  0.824089  1
  Si  Si1192  1  0.641130  0.730998  0.824062  1
  Si  Si1193  1  0.090381  0.730844  0.824071  1
  Si  Si1194  1  0.641327  0.909983  0.824084  1
  H  H1195  1  0.100609  0.413726  0.036254  1
  H  H1196  1  0.313249  0.413779  0.036253  1
  H  H1197  1  0.586223  0.686703  0.036255  1
  H  H1198  1  0.313257  0.899300  0.036248  1
  H  H1199  1  0.586252  0.899348  0.036252  1
  H  H1200  1  0.100614  0.686695  0.036253  1
  H  H1201  1  0.413882  0.313206  0.891255  1
  H  H1202  1  0.686921  0.100622  0.891253  1
  H  H1203  1  0.413929  0.100595  0.891256  1
  H  H1204  1  0.899536  0.313300  0.891253  1
  H  H1205  1  0.899432  0.586162  0.891255  1
  H  H1206  1  0.686826  0.586170  0.891255  1
