# generated using pymatgen
data_Si42H2O85
_symmetry_space_group_name_H-M   'P 1'
_cell_length_a   8.41979979
_cell_length_b   33.60885434
_cell_length_c   99.94550502
_cell_angle_alpha   59.66755629
_cell_angle_beta   90.00000000
_cell_angle_gamma   90.00000000
_symmetry_Int_Tables_number   1
_chemical_formula_structural   Si42H2O85
_chemical_formula_sum   'Si336 H16 O680'
_cell_volume   24410.9538327
_cell_formula_units_Z   8
loop_
 _symmetry_equiv_pos_site_id
 _symmetry_equiv_pos_as_xyz
  1  'x, y, z'
loop_
 _atom_site_type_symbol
 _atom_site_label
 _atom_site_symmetry_multiplicity
 _atom_site_fract_x
 _atom_site_fract_y
 _atom_site_fract_z
 _atom_site_occupancy
  O  O1  1  0.734077  0.667716  0.067282  1
  O  O2  1  0.266058  0.667716  0.067282  1
  O  O3  1  0.743085  0.166309  0.066967  1
  O  O4  1  0.257047  0.166309  0.066967  1
  O  O5  1  0.000000  0.861582  0.305678  1
  O  O6  1  0.742235  0.997213  0.274319  1
  O  O7  1  0.257897  0.997213  0.274319  1
  O  O8  1  0.500067  0.947049  0.276359  1
  O  O9  1  0.000000  0.790743  0.121307  1
  O  O10  1  0.786274  0.245810  0.217253  1
  O  O11  1  0.786275  0.754139  0.171117  1
  O  O12  1  0.213858  0.754139  0.171118  1
  O  O13  1  0.213858  0.245810  0.217253  1
  O  O14  1  0.783540  0.828465  0.173696  1
  O  O15  1  0.216592  0.828466  0.173695  1
  O  O16  1  0.723124  0.833304  0.147351  1
  O  O17  1  0.277008  0.833303  0.147351  1
  O  O18  1  0.000000  0.814631  0.159172  1
  O  O19  1  0.762203  0.942789  0.141904  1
  O  O20  1  0.237931  0.942790  0.141904  1
  O  O21  1  0.000000  0.955872  0.124556  1
  O  O22  1  0.761500  0.837170  0.121666  1
  O  O23  1  0.238633  0.837169  0.121666  1
  O  O24  1  0.500067  0.864044  0.127554  1
  O  O25  1  0.500066  0.802756  0.091269  1
  O  O26  1  0.750838  0.912372  0.123610  1
  O  O27  1  0.249295  0.912372  0.123610  1
  O  O28  1  0.737878  0.248586  0.256131  1
  O  O29  1  0.737876  0.751363  0.132239  1
  O  O30  1  0.262256  0.751363  0.132240  1
  O  O31  1  0.262256  0.248586  0.256131  1
  O  O32  1  0.743084  0.833640  0.073551  1
  O  O33  1  0.257046  0.833640  0.073552  1
  O  O34  1  0.743326  0.906271  0.293750  1
  O  O35  1  0.256806  0.906271  0.293750  1
  O  O36  1  0.766280  0.803783  0.103168  1
  O  O37  1  0.233855  0.803782  0.103168  1
  O  O38  1  0.764437  0.253231  0.171444  1
  O  O39  1  0.764436  0.746714  0.216926  1
  O  O40  1  0.235698  0.746716  0.216927  1
  O  O41  1  0.235697  0.253231  0.171444  1
  O  O42  1  0.785463  0.826512  0.297332  1
  O  O43  1  0.214673  0.826513  0.297332  1
  O  O44  1  0.731418  0.831863  0.271247  1
  O  O45  1  0.268713  0.831862  0.271247  1
  O  O46  1  0.000000  0.804775  0.284425  1
  O  O47  1  0.764557  0.941672  0.264935  1
  O  O48  1  0.235577  0.941671  0.264935  1
  O  O49  1  0.000000  0.953660  0.247428  1
  O  O50  1  0.759312  0.834552  0.245737  1
  O  O51  1  0.240828  0.834552  0.245735  1
  O  O52  1  0.500064  0.859704  0.252468  1
  O  O53  1  0.000000  0.800101  0.239726  1
  O  O54  1  0.500066  0.786565  0.214152  1
  O  O55  1  0.000000  0.862038  0.182598  1
  O  O56  1  0.500067  0.949001  0.153435  1
  O  O57  1  0.741925  0.832709  0.198211  1
  O  O58  1  0.258211  0.832709  0.198210  1
  O  O59  1  0.743885  0.907622  0.170735  1
  O  O60  1  0.256247  0.907622  0.170735  1
  O  O61  1  0.783559  0.252137  0.131530  1
  O  O62  1  0.783556  0.747813  0.256840  1
  O  O63  1  0.216576  0.747812  0.256841  1
  O  O64  1  0.216575  0.252137  0.131529  1
  O  O65  1  0.732710  0.799485  0.227836  1
  O  O66  1  0.267424  0.799482  0.227836  1
  O  O67  1  0.747693  0.910320  0.247098  1
  O  O68  1  0.252438  0.910320  0.247098  1
  O  O69  1  0.760051  0.332434  0.197278  1
  O  O70  1  0.760053  0.667515  0.191093  1
  O  O71  1  0.240082  0.667516  0.191093  1
  O  O72  1  0.240083  0.332434  0.197278  1
  O  O73  1  0.736325  0.406427  0.170028  1
  O  O74  1  0.736326  0.593520  0.218343  1
  O  O75  1  0.263806  0.593522  0.218343  1
  O  O76  1  0.263808  0.406427  0.170028  1
  O  O77  1  0.500066  0.352694  0.182205  1
  O  O78  1  0.500065  0.647253  0.206166  1
  O  O79  1  0.000000  0.448048  0.158568  1
  O  O80  1  -0.000000  0.551900  0.229803  1
  O  O81  1  0.733740  0.301644  0.226944  1
  O  O82  1  0.733741  0.698306  0.161426  1
  O  O83  1  0.266396  0.698305  0.161427  1
  O  O84  1  0.266394  0.301644  0.226944  1
  O  O85  1  0.500067  0.299580  0.243643  1
  O  O86  1  0.500067  0.700369  0.144728  1
  O  O87  1  0.769964  0.675184  0.091032  1
  O  O88  1  0.769965  0.324764  0.297339  1
  O  O89  1  0.230170  0.324765  0.297339  1
  O  O90  1  0.230168  0.675184  0.091032  1
  O  O91  1  0.500066  0.688721  0.099505  1
  O  O92  1  0.500067  0.311228  0.288866  1
  O  O93  1  0.764480  0.589735  0.140865  1
  O  O94  1  0.764480  0.410214  0.247506  1
  O  O95  1  0.235654  0.410213  0.247506  1
  O  O96  1  0.235655  0.589735  0.140865  1
  O  O97  1  0.500066  0.548752  0.142691  1
  O  O98  1  0.500066  0.451196  0.245680  1
  O  O99  1  0.000000  0.645949  0.131411  1
  O  O100  1  0.000000  0.353999  0.256959  1
  O  O101  1  0.000000  0.300861  0.215189  1
  O  O102  1  0.000000  0.699089  0.173182  1
  O  O103  1  0.715388  0.748061  0.093431  1
  O  O104  1  0.715387  0.251888  0.294940  1
  O  O105  1  0.284746  0.251888  0.294940  1
  O  O106  1  0.284746  0.748061  0.093431  1
  O  O107  1  0.736732  0.668878  0.117385  1
  O  O108  1  0.736731  0.331072  0.270986  1
  O  O109  1  0.263401  0.331070  0.270986  1
  O  O110  1  0.263402  0.668878  0.117385  1
  O  O111  1  0.709626  0.556394  0.123636  1
  O  O112  1  0.709626  0.443555  0.264735  1
  O  O113  1  0.290506  0.443555  0.264735  1
  O  O114  1  0.290507  0.556394  0.123636  1
  O  O115  1  0.760562  0.665117  0.142997  1
  O  O116  1  0.760561  0.334832  0.245374  1
  O  O117  1  0.239572  0.334832  0.245374  1
  O  O118  1  0.239571  0.665117  0.142997  1
  O  O119  1  0.750436  0.498202  0.151676  1
  O  O120  1  0.750435  0.501746  0.236695  1
  O  O121  1  0.249698  0.501747  0.236695  1
  O  O122  1  0.249698  0.498202  0.151676  1
  O  O123  1  0.757630  0.752684  0.295289  1
  O  O124  1  0.757630  0.247264  0.093082  1
  O  O125  1  0.242504  0.247264  0.093082  1
  O  O126  1  0.242505  0.752684  0.295289  1
  O  O127  1  0.737555  0.327023  0.173057  1
  O  O128  1  0.737559  0.672920  0.215315  1
  O  O129  1  0.262576  0.672926  0.215314  1
  O  O130  1  0.262576  0.327022  0.173057  1
  O  O131  1  0.765949  0.331544  0.147041  1
  O  O132  1  0.765950  0.668408  0.241330  1
  O  O133  1  0.234183  0.668405  0.241330  1
  O  O134  1  0.234184  0.331544  0.147041  1
  O  O135  1  0.000000  0.307196  0.165419  1
  O  O136  1  0.000000  0.692753  0.222951  1
  O  O137  1  0.790883  0.444783  0.141225  1
  O  O138  1  0.790881  0.555166  0.247146  1
  O  O139  1  0.209250  0.555166  0.247145  1
  O  O140  1  0.209251  0.444783  0.141225  1
  O  O141  1  0.000000  0.452168  0.122155  1
  O  O142  1  -0.000000  0.547781  0.266215  1
  O  O143  1  0.739829  0.337898  0.121046  1
  O  O144  1  0.739828  0.662052  0.267324  1
  O  O145  1  0.260302  0.662052  0.267324  1
  O  O146  1  0.260304  0.337897  0.121047  1
  O  O147  1  0.500067  0.354806  0.133302  1
  O  O148  1  0.500069  0.645144  0.255069  1
  O  O149  1  0.000000  0.308265  0.115977  1
  O  O150  1  -0.000000  0.691684  0.272393  1
  O  O151  1  0.500067  0.711286  0.297169  1
  O  O152  1  0.500067  0.288663  0.091201  1
  O  O153  1  -0.000000  0.647550  0.081527  1
  O  O154  1  -0.000000  0.352399  0.306844  1
  O  O155  1  0.749858  0.502932  0.113205  1
  O  O156  1  0.749858  0.497017  0.275166  1
  O  O157  1  0.250276  0.497017  0.275166  1
  O  O158  1  0.250275  0.502932  0.113205  1
  O  O159  1  0.500066  0.553096  0.106349  1
  O  O160  1  0.500067  0.446854  0.282021  1
  O  O161  1  0.734077  0.667716  0.315135  1
  O  O162  1  0.734078  0.332233  0.073236  1
  O  O163  1  0.266057  0.332233  0.073235  1
  O  O164  1  0.266058  0.667716  0.315135  1
  O  O165  1  0.763683  0.594528  0.094773  1
  O  O166  1  0.763682  0.405420  0.293598  1
  O  O167  1  0.236452  0.405421  0.293598  1
  O  O168  1  0.236450  0.594528  0.094773  1
  O  O169  1  0.747385  0.695435  0.285889  1
  O  O170  1  0.747386  0.304514  0.102482  1
  O  O171  1  0.252747  0.304514  0.102482  1
  O  O172  1  0.252745  0.695435  0.285889  1
  O  O173  1  0.734281  0.411542  0.124021  1
  O  O174  1  0.734283  0.588408  0.264349  1
  O  O175  1  0.265854  0.588407  0.264350  1
  O  O176  1  0.265852  0.411542  0.124021  1
  O  O177  1  0.743071  0.998633  0.151283  1
  O  O178  1  0.257062  0.998634  0.151282  1
  O  O179  1  0.500067  0.213383  0.174219  1
  O  O180  1  0.000000  0.209206  0.267063  1
  O  O181  1  0.500066  0.197193  0.297102  1
  O  O182  1  0.000000  0.199847  0.148645  1
  O  O183  1  0.732708  0.200467  0.160535  1
  O  O184  1  0.267426  0.200467  0.160535  1
  O  O185  1  0.000000  0.195174  0.103945  1
  O  O186  1  0.743071  0.001316  0.237088  1
  O  O187  1  0.257063  0.001315  0.237088  1
  O  O188  1  0.783540  0.171484  0.214675  1
  O  O189  1  0.216593  0.171484  0.214675  1
  O  O190  1  -0.000000  0.185318  0.229199  1
  O  O191  1  0.761499  0.162779  0.266705  1
  O  O192  1  0.238633  0.162780  0.266705  1
  O  O193  1  0.743085  0.166309  0.314819  1
  O  O194  1  0.257047  0.166309  0.314819  1
  O  O195  1  0.766279  0.196168  0.285203  1
  O  O196  1  0.233854  0.196167  0.285203  1
  O  O197  1  0.785463  0.173435  0.091039  1
  O  O198  1  0.214671  0.173436  0.091039  1
  O  O199  1  0.731421  0.168087  0.117124  1
  O  O200  1  0.268712  0.168087  0.117124  1
  O  O201  1  0.759303  0.165397  0.142636  1
  O  O202  1  0.240830  0.165396  0.142636  1
  O  O203  1  0.723124  0.166646  0.241019  1
  O  O204  1  0.277010  0.166646  0.241020  1
  O  O205  1  0.741925  0.167240  0.190161  1
  O  O206  1  0.258208  0.167240  0.190161  1
  O  O207  1  0.000000  0.138367  0.082693  1
  O  O208  1  0.742236  0.002736  0.114052  1
  O  O209  1  0.257898  0.002737  0.114052  1
  O  O210  1  0.500067  0.052900  0.112012  1
  O  O211  1  0.762202  0.057160  0.246467  1
  O  O212  1  0.237931  0.057159  0.246467  1
  O  O213  1  0.000000  0.044077  0.263815  1
  O  O214  1  0.500067  0.135905  0.260817  1
  O  O215  1  0.750839  0.087577  0.264761  1
  O  O216  1  0.249295  0.087578  0.264761  1
  O  O217  1  0.743327  0.093678  0.094621  1
  O  O218  1  0.256808  0.093678  0.094621  1
  O  O219  1  0.764557  0.058277  0.123436  1
  O  O220  1  0.235575  0.058278  0.123436  1
  O  O221  1  -0.000000  0.046289  0.140943  1
  O  O222  1  0.500067  0.140245  0.135903  1
  O  O223  1  0.000000  0.137910  0.205773  1
  O  O224  1  0.500066  0.050948  0.234935  1
  O  O225  1  0.743885  0.092327  0.217636  1
  O  O226  1  0.256248  0.092327  0.217636  1
  O  O227  1  0.747694  0.089629  0.141273  1
  O  O228  1  0.252441  0.089629  0.141273  1
  O  O229  1  0.000000  0.861582  0.553531  1
  O  O230  1  0.742235  0.997213  0.522172  1
  O  O231  1  0.257897  0.997213  0.522172  1
  O  O232  1  0.500067  0.947049  0.524212  1
  O  O233  1  0.000000  0.790743  0.369160  1
  O  O234  1  0.786274  0.245810  0.465106  1
  O  O235  1  0.786275  0.754139  0.418970  1
  O  O236  1  0.213858  0.754139  0.418970  1
  O  O237  1  0.213858  0.245810  0.465106  1
  O  O238  1  0.783540  0.828465  0.421549  1
  O  O239  1  0.216592  0.828466  0.421548  1
  O  O240  1  0.723124  0.833304  0.395204  1
  O  O241  1  0.277008  0.833303  0.395204  1
  O  O242  1  0.000000  0.814631  0.407024  1
  O  O243  1  0.762203  0.942789  0.389757  1
  O  O244  1  0.237931  0.942790  0.389757  1
  O  O245  1  -0.000000  0.955872  0.372409  1
  O  O246  1  0.761500  0.837170  0.369519  1
  O  O247  1  0.238633  0.837169  0.369519  1
  O  O248  1  0.500067  0.864044  0.375407  1
  O  O249  1  0.500066  0.802756  0.339122  1
  O  O250  1  0.750838  0.912372  0.371462  1
  O  O251  1  0.249295  0.912372  0.371462  1
  O  O252  1  0.737878  0.248586  0.503984  1
  O  O253  1  0.737876  0.751363  0.380092  1
  O  O254  1  0.262256  0.751363  0.380093  1
  O  O255  1  0.262256  0.248586  0.503984  1
  O  O256  1  0.743084  0.833640  0.321404  1
  O  O257  1  0.257046  0.833640  0.321404  1
  O  O258  1  0.743326  0.906271  0.541603  1
  O  O259  1  0.256806  0.906271  0.541603  1
  O  O260  1  0.766280  0.803783  0.351021  1
  O  O261  1  0.233855  0.803782  0.351021  1
  O  O262  1  0.764437  0.253231  0.419297  1
  O  O263  1  0.764436  0.746714  0.464779  1
  O  O264  1  0.235698  0.746716  0.464780  1
  O  O265  1  0.235697  0.253231  0.419297  1
  O  O266  1  0.785463  0.826512  0.545185  1
  O  O267  1  0.214673  0.826513  0.545185  1
  O  O268  1  0.731418  0.831863  0.519100  1
  O  O269  1  0.268713  0.831862  0.519100  1
  O  O270  1  0.000000  0.804775  0.532278  1
  O  O271  1  0.764557  0.941672  0.512788  1
  O  O272  1  0.235577  0.941671  0.512788  1
  O  O273  1  0.000000  0.953660  0.495281  1
  O  O274  1  0.759312  0.834552  0.493590  1
  O  O275  1  0.240828  0.834552  0.493588  1
  O  O276  1  0.500064  0.859704  0.500320  1
  O  O277  1  0.000000  0.800101  0.487579  1
  O  O278  1  0.500066  0.786565  0.462005  1
  O  O279  1  0.000000  0.862038  0.430451  1
  O  O280  1  0.500067  0.949001  0.401288  1
  O  O281  1  0.741925  0.832709  0.446063  1
  O  O282  1  0.258211  0.832709  0.446063  1
  O  O283  1  0.743885  0.907622  0.418588  1
  O  O284  1  0.256247  0.907622  0.418588  1
  O  O285  1  0.783559  0.252137  0.379382  1
  O  O286  1  0.783556  0.747813  0.504693  1
  O  O287  1  0.216576  0.747812  0.504694  1
  O  O288  1  0.216575  0.252137  0.379382  1
  O  O289  1  0.732710  0.799485  0.475689  1
  O  O290  1  0.267424  0.799482  0.475689  1
  O  O291  1  0.747693  0.910320  0.494951  1
  O  O292  1  0.252438  0.910320  0.494951  1
  O  O293  1  0.760051  0.332434  0.445131  1
  O  O294  1  0.760053  0.667515  0.438946  1
  O  O295  1  0.240082  0.667516  0.438946  1
  O  O296  1  0.240083  0.332434  0.445131  1
  O  O297  1  0.736325  0.406427  0.417881  1
  O  O298  1  0.736326  0.593520  0.466196  1
  O  O299  1  0.263806  0.593522  0.466196  1
  O  O300  1  0.263808  0.406427  0.417881  1
  O  O301  1  0.500066  0.352694  0.430058  1
  O  O302  1  0.500065  0.647253  0.454019  1
  O  O303  1  -0.000000  0.448048  0.406420  1
  O  O304  1  0.000000  0.551900  0.477656  1
  O  O305  1  0.733740  0.301644  0.474797  1
  O  O306  1  0.733741  0.698306  0.409279  1
  O  O307  1  0.266396  0.698305  0.409280  1
  O  O308  1  0.266394  0.301644  0.474797  1
  O  O309  1  0.500067  0.299580  0.491496  1
  O  O310  1  0.500067  0.700369  0.392581  1
  O  O311  1  0.769964  0.675184  0.338884  1
  O  O312  1  0.769965  0.324764  0.545192  1
  O  O313  1  0.230170  0.324765  0.545192  1
  O  O314  1  0.230168  0.675184  0.338884  1
  O  O315  1  0.500066  0.688721  0.347358  1
  O  O316  1  0.500067  0.311228  0.536719  1
  O  O317  1  0.764480  0.589735  0.388718  1
  O  O318  1  0.764480  0.410214  0.495359  1
  O  O319  1  0.235654  0.410213  0.495359  1
  O  O320  1  0.235655  0.589735  0.388718  1
  O  O321  1  0.500066  0.548752  0.390544  1
  O  O322  1  0.500066  0.451196  0.493533  1
  O  O323  1  0.000000  0.645949  0.379264  1
  O  O324  1  0.000000  0.353999  0.504812  1
  O  O325  1  0.000000  0.300861  0.463041  1
  O  O326  1  -0.000000  0.699089  0.421035  1
  O  O327  1  0.715388  0.748061  0.341284  1
  O  O328  1  0.715387  0.251888  0.542793  1
  O  O329  1  0.284746  0.251888  0.542793  1
  O  O330  1  0.284746  0.748061  0.341284  1
  O  O331  1  0.736732  0.668878  0.365238  1
  O  O332  1  0.736731  0.331072  0.518839  1
  O  O333  1  0.263401  0.331070  0.518839  1
  O  O334  1  0.263402  0.668878  0.365238  1
  O  O335  1  0.709626  0.556394  0.371489  1
  O  O336  1  0.709626  0.443555  0.512587  1
  O  O337  1  0.290506  0.443555  0.512587  1
  O  O338  1  0.290507  0.556394  0.371489  1
  O  O339  1  0.760562  0.665117  0.390850  1
  O  O340  1  0.760561  0.334832  0.493227  1
  O  O341  1  0.239572  0.334832  0.493227  1
  O  O342  1  0.239571  0.665117  0.390850  1
  O  O343  1  0.750436  0.498202  0.399529  1
  O  O344  1  0.750435  0.501746  0.484548  1
  O  O345  1  0.249698  0.501747  0.484548  1
  O  O346  1  0.249698  0.498202  0.399529  1
  O  O347  1  0.757630  0.752684  0.543142  1
  O  O348  1  0.757630  0.247264  0.340935  1
  O  O349  1  0.242504  0.247264  0.340935  1
  O  O350  1  0.242505  0.752684  0.543142  1
  O  O351  1  0.737555  0.327023  0.420910  1
  O  O352  1  0.737559  0.672920  0.463168  1
  O  O353  1  0.262576  0.672926  0.463167  1
  O  O354  1  0.262576  0.327022  0.420910  1
  O  O355  1  0.765949  0.331544  0.394894  1
  O  O356  1  0.765950  0.668408  0.489183  1
  O  O357  1  0.234183  0.668405  0.489183  1
  O  O358  1  0.234184  0.331544  0.394894  1
  O  O359  1  0.000000  0.307196  0.413272  1
  O  O360  1  0.000000  0.692753  0.470804  1
  O  O361  1  0.790883  0.444783  0.389078  1
  O  O362  1  0.790881  0.555166  0.494999  1
  O  O363  1  0.209250  0.555166  0.494998  1
  O  O364  1  0.209251  0.444783  0.389078  1
  O  O365  1  0.000000  0.452168  0.370008  1
  O  O366  1  0.000000  0.547781  0.514068  1
  O  O367  1  0.739829  0.337898  0.368899  1
  O  O368  1  0.739828  0.662052  0.515177  1
  O  O369  1  0.260302  0.662052  0.515177  1
  O  O370  1  0.260304  0.337897  0.368899  1
  O  O371  1  0.500067  0.354806  0.381155  1
  O  O372  1  0.500069  0.645144  0.502921  1
  O  O373  1  -0.000000  0.308265  0.363830  1
  O  O374  1  0.000000  0.691684  0.520246  1
  O  O375  1  0.500067  0.711286  0.545022  1
  O  O376  1  0.500067  0.288663  0.339054  1
  O  O377  1  0.000000  0.647550  0.329380  1
  O  O378  1  0.000000  0.352399  0.554696  1
  O  O379  1  0.749858  0.502932  0.361057  1
  O  O380  1  0.749858  0.497017  0.523019  1
  O  O381  1  0.250276  0.497017  0.523019  1
  O  O382  1  0.250275  0.502932  0.361058  1
  O  O383  1  0.500066  0.553096  0.354202  1
  O  O384  1  0.500067  0.446854  0.529874  1
  O  O385  1  0.734077  0.667716  0.562988  1
  O  O386  1  0.734078  0.332233  0.321089  1
  O  O387  1  0.266057  0.332233  0.321088  1
  O  O388  1  0.266058  0.667716  0.562988  1
  O  O389  1  0.763683  0.594528  0.342626  1
  O  O390  1  0.763682  0.405420  0.541451  1
  O  O391  1  0.236452  0.405421  0.541451  1
  O  O392  1  0.236450  0.594528  0.342626  1
  O  O393  1  0.747385  0.695435  0.533741  1
  O  O394  1  0.747386  0.304514  0.350335  1
  O  O395  1  0.252747  0.304514  0.350335  1
  O  O396  1  0.252745  0.695435  0.533741  1
  O  O397  1  0.734281  0.411542  0.371874  1
  O  O398  1  0.734283  0.588408  0.512202  1
  O  O399  1  0.265854  0.588407  0.512203  1
  O  O400  1  0.265852  0.411542  0.371874  1
  O  O401  1  0.743071  0.998633  0.399136  1
  O  O402  1  0.257062  0.998634  0.399135  1
  O  O403  1  0.500067  0.213383  0.422072  1
  O  O404  1  -0.000000  0.209206  0.514916  1
  O  O405  1  0.500066  0.197193  0.544955  1
  O  O406  1  0.000000  0.199847  0.396498  1
  O  O407  1  0.732708  0.200467  0.408388  1
  O  O408  1  0.267426  0.200467  0.408388  1
  O  O409  1  -0.000000  0.195174  0.351798  1
  O  O410  1  0.743071  0.001316  0.484941  1
  O  O411  1  0.257063  0.001315  0.484941  1
  O  O412  1  0.783540  0.171484  0.462528  1
  O  O413  1  0.216593  0.171484  0.462528  1
  O  O414  1  -0.000000  0.185318  0.477052  1
  O  O415  1  0.761499  0.162779  0.514558  1
  O  O416  1  0.238633  0.162780  0.514558  1
  O  O417  1  0.743085  0.166309  0.562672  1
  O  O418  1  0.257047  0.166309  0.562672  1
  O  O419  1  0.766279  0.196168  0.533056  1
  O  O420  1  0.233854  0.196167  0.533056  1
  O  O421  1  0.785463  0.173435  0.338892  1
  O  O422  1  0.214671  0.173436  0.338892  1
  O  O423  1  0.731421  0.168087  0.364977  1
  O  O424  1  0.268712  0.168087  0.364977  1
  O  O425  1  0.759303  0.165397  0.390488  1
  O  O426  1  0.240830  0.165396  0.390489  1
  O  O427  1  0.723124  0.166646  0.488872  1
  O  O428  1  0.277010  0.166646  0.488872  1
  O  O429  1  0.741925  0.167240  0.438013  1
  O  O430  1  0.258208  0.167240  0.438013  1
  O  O431  1  0.000000  0.138367  0.330546  1
  O  O432  1  0.742236  0.002736  0.361905  1
  O  O433  1  0.257898  0.002737  0.361905  1
  O  O434  1  0.500067  0.052900  0.359865  1
  O  O435  1  0.762202  0.057160  0.494319  1
  O  O436  1  0.237931  0.057159  0.494320  1
  O  O437  1  0.000000  0.044077  0.511667  1
  O  O438  1  0.500067  0.135905  0.508670  1
  O  O439  1  0.750839  0.087577  0.512614  1
  O  O440  1  0.249295  0.087578  0.512614  1
  O  O441  1  0.743327  0.093678  0.342474  1
  O  O442  1  0.256808  0.093678  0.342474  1
  O  O443  1  0.764557  0.058277  0.371289  1
  O  O444  1  0.235575  0.058278  0.371288  1
  O  O445  1  -0.000000  0.046289  0.388796  1
  O  O446  1  0.500067  0.140245  0.383756  1
  O  O447  1  -0.000000  0.137910  0.453626  1
  O  O448  1  0.500066  0.050948  0.482788  1
  O  O449  1  0.743885  0.092327  0.465488  1
  O  O450  1  0.256248  0.092327  0.465488  1
  O  O451  1  0.747694  0.089629  0.389126  1
  O  O452  1  0.252441  0.089629  0.389126  1
  O  O453  1  0.000000  0.861582  0.801384  1
  O  O454  1  0.742235  0.997213  0.770025  1
  O  O455  1  0.257897  0.997213  0.770025  1
  O  O456  1  0.500067  0.947049  0.772065  1
  O  O457  1  0.000000  0.790743  0.617013  1
  O  O458  1  0.786274  0.245810  0.712959  1
  O  O459  1  0.786275  0.754139  0.666823  1
  O  O460  1  0.213858  0.754139  0.666823  1
  O  O461  1  0.213858  0.245810  0.712959  1
  O  O462  1  0.783540  0.828465  0.669401  1
  O  O463  1  0.216592  0.828466  0.669401  1
  O  O464  1  0.723124  0.833304  0.643057  1
  O  O465  1  0.277008  0.833303  0.643057  1
  O  O466  1  -0.000000  0.814631  0.654877  1
  O  O467  1  0.762203  0.942789  0.637610  1
  O  O468  1  0.237931  0.942790  0.637610  1
  O  O469  1  -0.000000  0.955872  0.620262  1
  O  O470  1  0.761500  0.837170  0.617372  1
  O  O471  1  0.238633  0.837169  0.617372  1
  O  O472  1  0.500067  0.864044  0.623260  1
  O  O473  1  0.500066  0.802756  0.586975  1
  O  O474  1  0.750838  0.912372  0.619315  1
  O  O475  1  0.249295  0.912372  0.619315  1
  O  O476  1  0.737878  0.248586  0.751837  1
  O  O477  1  0.737876  0.751363  0.627945  1
  O  O478  1  0.262256  0.751363  0.627946  1
  O  O479  1  0.262256  0.248586  0.751837  1
  O  O480  1  0.743084  0.833640  0.569257  1
  O  O481  1  0.257046  0.833640  0.569257  1
  O  O482  1  0.743326  0.906271  0.789455  1
  O  O483  1  0.256806  0.906271  0.789455  1
  O  O484  1  0.766280  0.803783  0.598873  1
  O  O485  1  0.233855  0.803782  0.598874  1
  O  O486  1  0.764437  0.253231  0.667149  1
  O  O487  1  0.764436  0.746714  0.712632  1
  O  O488  1  0.235698  0.746716  0.712633  1
  O  O489  1  0.235697  0.253231  0.667149  1
  O  O490  1  0.785463  0.826512  0.793038  1
  O  O491  1  0.214673  0.826513  0.793038  1
  O  O492  1  0.731418  0.831863  0.766953  1
  O  O493  1  0.268713  0.831862  0.766952  1
  O  O494  1  0.000000  0.804775  0.780131  1
  O  O495  1  0.764557  0.941672  0.760641  1
  O  O496  1  0.235577  0.941671  0.760641  1
  O  O497  1  0.000000  0.953660  0.743133  1
  O  O498  1  0.759312  0.834552  0.741442  1
  O  O499  1  0.240828  0.834552  0.741441  1
  O  O500  1  0.500064  0.859704  0.748173  1
  O  O501  1  -0.000000  0.800101  0.735432  1
  O  O502  1  0.500066  0.786565  0.709858  1
  O  O503  1  0.000000  0.862038  0.678304  1
  O  O504  1  0.500067  0.949001  0.649141  1
  O  O505  1  0.741925  0.832709  0.693916  1
  O  O506  1  0.258211  0.832709  0.693916  1
  O  O507  1  0.743885  0.907622  0.666441  1
  O  O508  1  0.256247  0.907622  0.666441  1
  O  O509  1  0.783559  0.252137  0.627235  1
  O  O510  1  0.783556  0.747813  0.752546  1
  O  O511  1  0.216576  0.747812  0.752547  1
  O  O512  1  0.216575  0.252137  0.627235  1
  O  O513  1  0.732710  0.799485  0.723542  1
  O  O514  1  0.267424  0.799482  0.723542  1
  O  O515  1  0.747693  0.910320  0.742804  1
  O  O516  1  0.252438  0.910320  0.742804  1
  O  O517  1  0.760051  0.332434  0.692984  1
  O  O518  1  0.760053  0.667515  0.686799  1
  O  O519  1  0.240082  0.667516  0.686799  1
  O  O520  1  0.240083  0.332434  0.692983  1
  O  O521  1  0.736325  0.406427  0.665734  1
  O  O522  1  0.736326  0.593520  0.714048  1
  O  O523  1  0.263806  0.593522  0.714049  1
  O  O524  1  0.263808  0.406427  0.665734  1
  O  O525  1  0.500066  0.352694  0.677911  1
  O  O526  1  0.500065  0.647253  0.701872  1
  O  O527  1  0.000000  0.448048  0.654273  1
  O  O528  1  0.000000  0.551900  0.725509  1
  O  O529  1  0.733740  0.301644  0.722650  1
  O  O530  1  0.733741  0.698306  0.657132  1
  O  O531  1  0.266396  0.698305  0.657133  1
  O  O532  1  0.266394  0.301644  0.722650  1
  O  O533  1  0.500067  0.299580  0.739349  1
  O  O534  1  0.500067  0.700369  0.640433  1
  O  O535  1  0.769964  0.675184  0.586737  1
  O  O536  1  0.769965  0.324764  0.793045  1
  O  O537  1  0.230170  0.324765  0.793045  1
  O  O538  1  0.230168  0.675184  0.586737  1
  O  O539  1  0.500066  0.688721  0.595210  1
  O  O540  1  0.500067  0.311228  0.784572  1
  O  O541  1  0.764480  0.589735  0.636571  1
  O  O542  1  0.764480  0.410214  0.743212  1
  O  O543  1  0.235654  0.410213  0.743212  1
  O  O544  1  0.235655  0.589735  0.636571  1
  O  O545  1  0.500066  0.548752  0.638397  1
  O  O546  1  0.500066  0.451196  0.741386  1
  O  O547  1  -0.000000  0.645949  0.627117  1
  O  O548  1  0.000000  0.353999  0.752665  1
  O  O549  1  -0.000000  0.300861  0.710894  1
  O  O550  1  0.000000  0.699089  0.668888  1
  O  O551  1  0.715388  0.748061  0.589137  1
  O  O552  1  0.715387  0.251888  0.790645  1
  O  O553  1  0.284746  0.251888  0.790646  1
  O  O554  1  0.284746  0.748061  0.589137  1
  O  O555  1  0.736732  0.668878  0.613091  1
  O  O556  1  0.736731  0.331072  0.766692  1
  O  O557  1  0.263401  0.331070  0.766692  1
  O  O558  1  0.263402  0.668878  0.613091  1
  O  O559  1  0.709626  0.556394  0.619342  1
  O  O560  1  0.709626  0.443555  0.760440  1
  O  O561  1  0.290506  0.443555  0.760440  1
  O  O562  1  0.290507  0.556394  0.619342  1
  O  O563  1  0.760562  0.665117  0.638703  1
  O  O564  1  0.760561  0.334832  0.741080  1
  O  O565  1  0.239572  0.334832  0.741080  1
  O  O566  1  0.239571  0.665117  0.638703  1
  O  O567  1  0.750436  0.498202  0.647381  1
  O  O568  1  0.750435  0.501746  0.732401  1
  O  O569  1  0.249698  0.501747  0.732401  1
  O  O570  1  0.249698  0.498202  0.647381  1
  O  O571  1  0.757630  0.752684  0.790995  1
  O  O572  1  0.757630  0.247264  0.588788  1
  O  O573  1  0.242504  0.247264  0.588788  1
  O  O574  1  0.242505  0.752684  0.790995  1
  O  O575  1  0.737555  0.327023  0.668763  1
  O  O576  1  0.737559  0.672920  0.711021  1
  O  O577  1  0.262576  0.672926  0.711020  1
  O  O578  1  0.262576  0.327022  0.668763  1
  O  O579  1  0.765949  0.331544  0.642747  1
  O  O580  1  0.765950  0.668408  0.737036  1
  O  O581  1  0.234183  0.668405  0.737036  1
  O  O582  1  0.234184  0.331544  0.642747  1
  O  O583  1  0.000000  0.307196  0.661125  1
  O  O584  1  0.000000  0.692753  0.718657  1
  O  O585  1  0.790883  0.444783  0.636931  1
  O  O586  1  0.790881  0.555166  0.742851  1
  O  O587  1  0.209250  0.555166  0.742851  1
  O  O588  1  0.209251  0.444783  0.636931  1
  O  O589  1  0.000000  0.452168  0.617861  1
  O  O590  1  0.000000  0.547781  0.761921  1
  O  O591  1  0.739829  0.337898  0.616752  1
  O  O592  1  0.739828  0.662052  0.763030  1
  O  O593  1  0.260302  0.662052  0.763030  1
  O  O594  1  0.260304  0.337897  0.616752  1
  O  O595  1  0.500067  0.354806  0.629008  1
  O  O596  1  0.500069  0.645144  0.750774  1
  O  O597  1  0.000000  0.308265  0.611683  1
  O  O598  1  -0.000000  0.691684  0.768099  1
  O  O599  1  0.500067  0.711286  0.792875  1
  O  O600  1  0.500067  0.288663  0.586907  1
  O  O601  1  0.000000  0.647550  0.577233  1
  O  O602  1  0.000000  0.352399  0.802549  1
  O  O603  1  0.749858  0.502932  0.608910  1
  O  O604  1  0.749858  0.497017  0.770872  1
  O  O605  1  0.250276  0.497017  0.770872  1
  O  O606  1  0.250275  0.502932  0.608911  1
  O  O607  1  0.500066  0.553096  0.602055  1
  O  O608  1  0.500067  0.446854  0.777727  1
  O  O609  1  0.734077  0.667716  0.810841  1
  O  O610  1  0.734078  0.332233  0.568942  1
  O  O611  1  0.266057  0.332233  0.568941  1
  O  O612  1  0.266058  0.667716  0.810841  1
  O  O613  1  0.763683  0.594528  0.590478  1
  O  O614  1  0.763682  0.405420  0.789304  1
  O  O615  1  0.236452  0.405421  0.789304  1
  O  O616  1  0.236450  0.594528  0.590478  1
  O  O617  1  0.747385  0.695435  0.781594  1
  O  O618  1  0.747386  0.304514  0.598188  1
  O  O619  1  0.252747  0.304514  0.598188  1
  O  O620  1  0.252745  0.695435  0.781594  1
  O  O621  1  0.734281  0.411542  0.619727  1
  O  O622  1  0.734283  0.588408  0.760055  1
  O  O623  1  0.265854  0.588407  0.760056  1
  O  O624  1  0.265852  0.411542  0.619727  1
  O  O625  1  0.743071  0.998633  0.646989  1
  O  O626  1  0.257062  0.998634  0.646988  1
  O  O627  1  0.500067  0.213383  0.669925  1
  O  O628  1  0.000000  0.209206  0.762769  1
  O  O629  1  0.500066  0.197193  0.792807  1
  O  O630  1  0.000000  0.199847  0.644350  1
  O  O631  1  0.732708  0.200467  0.656241  1
  O  O632  1  0.267426  0.200467  0.656241  1
  O  O633  1  0.000000  0.195174  0.599651  1
  O  O634  1  0.743071  0.001316  0.732794  1
  O  O635  1  0.257063  0.001315  0.732794  1
  O  O636  1  0.783540  0.171484  0.710381  1
  O  O637  1  0.216593  0.171484  0.710381  1
  O  O638  1  0.000000  0.185318  0.724905  1
  O  O639  1  0.761499  0.162779  0.762411  1
  O  O640  1  0.238633  0.162780  0.762411  1
  O  O641  1  0.743085  0.166309  0.810525  1
  O  O642  1  0.257047  0.166309  0.810525  1
  O  O643  1  0.766279  0.196168  0.780909  1
  O  O644  1  0.233854  0.196167  0.780909  1
  O  O645  1  0.785463  0.173435  0.586745  1
  O  O646  1  0.214671  0.173436  0.586745  1
  O  O647  1  0.731421  0.168087  0.612830  1
  O  O648  1  0.268712  0.168087  0.612830  1
  O  O649  1  0.759303  0.165397  0.638341  1
  O  O650  1  0.240830  0.165396  0.638342  1
  O  O651  1  0.723124  0.166646  0.736725  1
  O  O652  1  0.277010  0.166646  0.736725  1
  O  O653  1  0.741925  0.167240  0.685866  1
  O  O654  1  0.258208  0.167240  0.685866  1
  O  O655  1  0.000000  0.138367  0.578399  1
  O  O656  1  0.742236  0.002736  0.609758  1
  O  O657  1  0.257898  0.002737  0.609757  1
  O  O658  1  0.500067  0.052900  0.607718  1
  O  O659  1  0.762202  0.057160  0.742172  1
  O  O660  1  0.237931  0.057159  0.742173  1
  O  O661  1  -0.000000  0.044077  0.759520  1
  O  O662  1  0.500067  0.135905  0.756523  1
  O  O663  1  0.750839  0.087577  0.760467  1
  O  O664  1  0.249295  0.087578  0.760467  1
  O  O665  1  0.743327  0.093678  0.590327  1
  O  O666  1  0.256808  0.093678  0.590327  1
  O  O667  1  0.764557  0.058277  0.619142  1
  O  O668  1  0.235575  0.058278  0.619141  1
  O  O669  1  -0.000000  0.046289  0.636649  1
  O  O670  1  0.500067  0.140245  0.631609  1
  O  O671  1  0.000000  0.137910  0.701479  1
  O  O672  1  0.500066  0.050948  0.730641  1
  O  O673  1  0.743885  0.092327  0.713341  1
  O  O674  1  0.256248  0.092327  0.713341  1
  O  O675  1  0.747694  0.089629  0.636979  1
  O  O676  1  0.252441  0.089629  0.636979  1
  O  O677  1  0.743084  0.833640  0.817110  1
  O  O678  1  0.257046  0.833640  0.817110  1
  O  O679  1  0.734078  0.332233  0.816794  1
  O  O680  1  0.266057  0.332233  0.816794  1
  Si  Si681  1  0.683897  0.862388  0.129629  1
  Si  Si682  1  0.316237  0.862388  0.129629  1
  Si  Si683  1  0.816372  0.796484  0.119331  1
  Si  Si684  1  0.183761  0.796484  0.119331  1
  Si  Si685  1  0.684166  0.859667  0.253770  1
  Si  Si686  1  0.315964  0.859666  0.253769  1
  Si  Si687  1  0.683745  0.792090  0.214175  1
  Si  Si688  1  0.316392  0.792089  0.214175  1
  Si  Si689  1  0.683773  0.355011  0.180803  1
  Si  Si690  1  0.683770  0.644935  0.207568  1
  Si  Si691  1  0.316362  0.644937  0.207568  1
  Si  Si692  1  0.316362  0.355011  0.180803  1
  Si  Si693  1  0.683908  0.296697  0.242757  1
  Si  Si694  1  0.683907  0.703253  0.145613  1
  Si  Si695  1  0.316227  0.703252  0.145614  1
  Si  Si696  1  0.316227  0.296697  0.242757  1
  Si  Si697  1  0.816591  0.641635  0.133647  1
  Si  Si698  1  0.816591  0.358314  0.254724  1
  Si  Si699  1  0.183543  0.358314  0.254724  1
  Si  Si700  1  0.183543  0.641635  0.133647  1
  Si  Si701  1  0.815965  0.304548  0.164381  1
  Si  Si702  1  0.815958  0.695403  0.223989  1
  Si  Si703  1  0.184171  0.695403  0.223989  1
  Si  Si704  1  0.184169  0.304548  0.164381  1
  Si  Si705  1  0.683651  0.359654  0.130922  1
  Si  Si706  1  0.683652  0.640296  0.257449  1
  Si  Si707  1  0.316484  0.640296  0.257449  1
  Si  Si708  1  0.316484  0.359654  0.130922  1
  Si  Si709  1  0.816433  0.645660  0.083556  1
  Si  Si710  1  0.816433  0.354289  0.304815  1
  Si  Si711  1  0.183700  0.354289  0.304815  1
  Si  Si712  1  0.183700  0.645660  0.083556  1
  Si  Si713  1  0.683988  0.706068  0.298423  1
  Si  Si714  1  0.683988  0.293880  0.089948  1
  Si  Si715  1  0.316145  0.293880  0.089948  1
  Si  Si716  1  0.316146  0.706068  0.298423  1
  Si  Si717  1  0.684873  0.947916  0.277908  1
  Si  Si718  1  0.315260  0.947915  0.277908  1
  Si  Si719  1  0.814790  0.953460  0.125395  1
  Si  Si720  1  0.185343  0.953461  0.125394  1
  Si  Si721  1  0.683489  0.798201  0.090192  1
  Si  Si722  1  0.316644  0.798201  0.090192  1
  Si  Si723  1  0.816396  0.857246  0.304790  1
  Si  Si724  1  0.183737  0.857246  0.304790  1
  Si  Si725  1  0.816667  0.803706  0.287207  1
  Si  Si726  1  0.183469  0.803706  0.287207  1
  Si  Si727  1  0.684874  0.949380  0.154911  1
  Si  Si728  1  0.315260  0.949380  0.154911  1
  Si  Si729  1  0.815893  0.858193  0.181542  1
  Si  Si730  1  0.184240  0.858194  0.181542  1
  Si  Si731  1  0.816563  0.796340  0.242292  1
  Si  Si732  1  0.183565  0.796338  0.242292  1
  Si  Si733  1  0.814802  0.951955  0.248420  1
  Si  Si734  1  0.185334  0.951954  0.248420  1
  Si  Si735  1  0.816737  0.296194  0.213976  1
  Si  Si736  1  0.816738  0.703755  0.174394  1
  Si  Si737  1  0.183398  0.703755  0.174394  1
  Si  Si738  1  0.183397  0.296194  0.213976  1
  Si  Si739  1  0.683404  0.695345  0.100122  1
  Si  Si740  1  0.683404  0.304604  0.288249  1
  Si  Si741  1  0.316730  0.304604  0.288249  1
  Si  Si742  1  0.316730  0.695345  0.100122  1
  Si  Si743  1  0.816077  0.698304  0.270909  1
  Si  Si744  1  0.816079  0.301647  0.117461  1
  Si  Si745  1  0.184055  0.301647  0.117461  1
  Si  Si746  1  0.184054  0.698302  0.270910  1
  Si  Si747  1  0.817430  0.807619  0.162982  1
  Si  Si748  1  0.182703  0.807619  0.162982  1
  Si  Si749  1  0.683601  0.548082  0.140423  1
  Si  Si750  1  0.683600  0.451867  0.247947  1
  Si  Si751  1  0.316531  0.451867  0.247947  1
  Si  Si752  1  0.316532  0.548082  0.140423  1
  Si  Si753  1  0.816780  0.449271  0.155951  1
  Si  Si754  1  0.816780  0.550677  0.232420  1
  Si  Si755  1  0.183354  0.550678  0.232419  1
  Si  Si756  1  0.183354  0.449271  0.155951  1
  Si  Si757  1  0.683474  0.551885  0.108917  1
  Si  Si758  1  0.683475  0.448065  0.279454  1
  Si  Si759  1  0.316660  0.448064  0.279454  1
  Si  Si760  1  0.316658  0.551885  0.108917  1
  Si  Si761  1  0.816570  0.453013  0.124453  1
  Si  Si762  1  0.816570  0.546936  0.263918  1
  Si  Si763  1  0.183564  0.546936  0.263918  1
  Si  Si764  1  0.183564  0.453013  0.124453  1
  Si  Si765  1  0.683750  0.207861  0.174195  1
  Si  Si766  1  0.316383  0.207861  0.174195  1
  Si  Si767  1  0.816372  0.203466  0.269040  1
  Si  Si768  1  0.183761  0.203466  0.269040  1
  Si  Si769  1  0.683489  0.201748  0.298179  1
  Si  Si770  1  0.316644  0.201748  0.298179  1
  Si  Si771  1  0.816665  0.196243  0.101164  1
  Si  Si772  1  0.183468  0.196243  0.101164  1
  Si  Si773  1  0.816570  0.203611  0.146078  1
  Si  Si774  1  0.183563  0.203611  0.146078  1
  Si  Si775  1  0.817430  0.192330  0.225389  1
  Si  Si776  1  0.182702  0.192330  0.225389  1
  Si  Si777  1  0.683897  0.137561  0.258742  1
  Si  Si778  1  0.316237  0.137561  0.258742  1
  Si  Si779  1  0.684167  0.140283  0.134602  1
  Si  Si780  1  0.315966  0.140283  0.134602  1
  Si  Si781  1  0.684873  0.052034  0.110463  1
  Si  Si782  1  0.315260  0.052034  0.110463  1
  Si  Si783  1  0.814791  0.046489  0.262976  1
  Si  Si784  1  0.185343  0.046489  0.262977  1
  Si  Si785  1  0.816397  0.142702  0.083582  1
  Si  Si786  1  0.183737  0.142703  0.083581  1
  Si  Si787  1  0.684873  0.050569  0.233460  1
  Si  Si788  1  0.315260  0.050569  0.233460  1
  Si  Si789  1  0.815894  0.141755  0.206829  1
  Si  Si790  1  0.184240  0.141755  0.206829  1
  Si  Si791  1  0.814800  0.047995  0.139951  1
  Si  Si792  1  0.185332  0.047995  0.139951  1
  Si  Si793  1  0.683897  0.862388  0.377482  1
  Si  Si794  1  0.316237  0.862388  0.377482  1
  Si  Si795  1  0.816372  0.796484  0.367184  1
  Si  Si796  1  0.183761  0.796484  0.367184  1
  Si  Si797  1  0.684166  0.859667  0.501622  1
  Si  Si798  1  0.315964  0.859666  0.501622  1
  Si  Si799  1  0.683745  0.792090  0.462028  1
  Si  Si800  1  0.316392  0.792089  0.462028  1
  Si  Si801  1  0.683773  0.355011  0.428656  1
  Si  Si802  1  0.683770  0.644935  0.455420  1
  Si  Si803  1  0.316362  0.644937  0.455420  1
  Si  Si804  1  0.316362  0.355011  0.428656  1
  Si  Si805  1  0.683908  0.296697  0.490610  1
  Si  Si806  1  0.683907  0.703253  0.393466  1
  Si  Si807  1  0.316227  0.703252  0.393467  1
  Si  Si808  1  0.316227  0.296697  0.490610  1
  Si  Si809  1  0.816591  0.641635  0.381500  1
  Si  Si810  1  0.816591  0.358314  0.502577  1
  Si  Si811  1  0.183543  0.358314  0.502577  1
  Si  Si812  1  0.183543  0.641635  0.381500  1
  Si  Si813  1  0.815965  0.304548  0.412234  1
  Si  Si814  1  0.815958  0.695403  0.471841  1
  Si  Si815  1  0.184171  0.695403  0.471842  1
  Si  Si816  1  0.184169  0.304548  0.412234  1
  Si  Si817  1  0.683651  0.359654  0.378775  1
  Si  Si818  1  0.683652  0.640296  0.505302  1
  Si  Si819  1  0.316484  0.640296  0.505302  1
  Si  Si820  1  0.316484  0.359654  0.378775  1
  Si  Si821  1  0.816433  0.645660  0.331409  1
  Si  Si822  1  0.816433  0.354289  0.552668  1
  Si  Si823  1  0.183700  0.354289  0.552668  1
  Si  Si824  1  0.183700  0.645660  0.331409  1
  Si  Si825  1  0.683988  0.706068  0.546276  1
  Si  Si826  1  0.683988  0.293880  0.337801  1
  Si  Si827  1  0.316145  0.293880  0.337801  1
  Si  Si828  1  0.316146  0.706068  0.546276  1
  Si  Si829  1  0.684873  0.947916  0.525761  1
  Si  Si830  1  0.315260  0.947915  0.525761  1
  Si  Si831  1  0.814790  0.953460  0.373248  1
  Si  Si832  1  0.185343  0.953461  0.373247  1
  Si  Si833  1  0.683489  0.798201  0.338045  1
  Si  Si834  1  0.316644  0.798201  0.338045  1
  Si  Si835  1  0.816396  0.857246  0.552642  1
  Si  Si836  1  0.183737  0.857246  0.552642  1
  Si  Si837  1  0.816667  0.803706  0.535060  1
  Si  Si838  1  0.183469  0.803706  0.535060  1
  Si  Si839  1  0.684874  0.949380  0.402764  1
  Si  Si840  1  0.315260  0.949380  0.402764  1
  Si  Si841  1  0.815893  0.858193  0.429395  1
  Si  Si842  1  0.184240  0.858194  0.429395  1
  Si  Si843  1  0.816563  0.796340  0.490145  1
  Si  Si844  1  0.183565  0.796338  0.490145  1
  Si  Si845  1  0.814802  0.951955  0.496273  1
  Si  Si846  1  0.185334  0.951954  0.496273  1
  Si  Si847  1  0.816737  0.296194  0.461829  1
  Si  Si848  1  0.816738  0.703755  0.422247  1
  Si  Si849  1  0.183398  0.703755  0.422247  1
  Si  Si850  1  0.183397  0.296194  0.461829  1
  Si  Si851  1  0.683404  0.695345  0.347975  1
  Si  Si852  1  0.683404  0.304604  0.536101  1
  Si  Si853  1  0.316730  0.304604  0.536101  1
  Si  Si854  1  0.316730  0.695345  0.347975  1
  Si  Si855  1  0.816077  0.698304  0.518762  1
  Si  Si856  1  0.816079  0.301647  0.365314  1
  Si  Si857  1  0.184055  0.301647  0.365314  1
  Si  Si858  1  0.184054  0.698302  0.518763  1
  Si  Si859  1  0.817430  0.807619  0.410834  1
  Si  Si860  1  0.182703  0.807619  0.410834  1
  Si  Si861  1  0.683601  0.548082  0.388276  1
  Si  Si862  1  0.683600  0.451867  0.495800  1
  Si  Si863  1  0.316531  0.451867  0.495800  1
  Si  Si864  1  0.316532  0.548082  0.388276  1
  Si  Si865  1  0.816780  0.449271  0.403804  1
  Si  Si866  1  0.816780  0.550677  0.480272  1
  Si  Si867  1  0.183354  0.550678  0.480272  1
  Si  Si868  1  0.183354  0.449271  0.403804  1
  Si  Si869  1  0.683474  0.551885  0.356770  1
  Si  Si870  1  0.683475  0.448065  0.527306  1
  Si  Si871  1  0.316660  0.448064  0.527306  1
  Si  Si872  1  0.316658  0.551885  0.356770  1
  Si  Si873  1  0.816570  0.453013  0.372306  1
  Si  Si874  1  0.816570  0.546936  0.511771  1
  Si  Si875  1  0.183564  0.546936  0.511771  1
  Si  Si876  1  0.183564  0.453013  0.372306  1
  Si  Si877  1  0.683750  0.207861  0.422048  1
  Si  Si878  1  0.316383  0.207861  0.422048  1
  Si  Si879  1  0.816372  0.203466  0.516893  1
  Si  Si880  1  0.183761  0.203466  0.516893  1
  Si  Si881  1  0.683489  0.201748  0.546031  1
  Si  Si882  1  0.316644  0.201748  0.546031  1
  Si  Si883  1  0.816665  0.196243  0.349016  1
  Si  Si884  1  0.183468  0.196243  0.349016  1
  Si  Si885  1  0.816570  0.203611  0.393931  1
  Si  Si886  1  0.183563  0.203611  0.393931  1
  Si  Si887  1  0.817430  0.192330  0.473242  1
  Si  Si888  1  0.182702  0.192330  0.473242  1
  Si  Si889  1  0.683897  0.137561  0.506595  1
  Si  Si890  1  0.316237  0.137561  0.506595  1
  Si  Si891  1  0.684167  0.140283  0.382455  1
  Si  Si892  1  0.315966  0.140283  0.382455  1
  Si  Si893  1  0.684873  0.052034  0.358316  1
  Si  Si894  1  0.315260  0.052034  0.358316  1
  Si  Si895  1  0.814791  0.046489  0.510829  1
  Si  Si896  1  0.185343  0.046489  0.510829  1
  Si  Si897  1  0.816397  0.142702  0.331435  1
  Si  Si898  1  0.183737  0.142703  0.331434  1
  Si  Si899  1  0.684873  0.050569  0.481313  1
  Si  Si900  1  0.315260  0.050569  0.481313  1
  Si  Si901  1  0.815894  0.141755  0.454682  1
  Si  Si902  1  0.184240  0.141755  0.454682  1
  Si  Si903  1  0.814800  0.047995  0.387804  1
  Si  Si904  1  0.185332  0.047995  0.387804  1
  Si  Si905  1  0.683897  0.862388  0.625335  1
  Si  Si906  1  0.316237  0.862388  0.625335  1
  Si  Si907  1  0.816372  0.796484  0.615036  1
  Si  Si908  1  0.183761  0.796484  0.615037  1
  Si  Si909  1  0.684166  0.859667  0.749475  1
  Si  Si910  1  0.315964  0.859666  0.749475  1
  Si  Si911  1  0.683745  0.792090  0.709881  1
  Si  Si912  1  0.316392  0.792089  0.709881  1
  Si  Si913  1  0.683773  0.355011  0.676509  1
  Si  Si914  1  0.683770  0.644935  0.703273  1
  Si  Si915  1  0.316362  0.644937  0.703273  1
  Si  Si916  1  0.316362  0.355011  0.676509  1
  Si  Si917  1  0.683908  0.296697  0.738463  1
  Si  Si918  1  0.683907  0.703253  0.641319  1
  Si  Si919  1  0.316227  0.703252  0.641320  1
  Si  Si920  1  0.316227  0.296697  0.738463  1
  Si  Si921  1  0.816591  0.641635  0.629352  1
  Si  Si922  1  0.816591  0.358314  0.750430  1
  Si  Si923  1  0.183543  0.358314  0.750430  1
  Si  Si924  1  0.183543  0.641635  0.629352  1
  Si  Si925  1  0.815965  0.304548  0.660087  1
  Si  Si926  1  0.815958  0.695403  0.719694  1
  Si  Si927  1  0.184171  0.695403  0.719695  1
  Si  Si928  1  0.184169  0.304548  0.660087  1
  Si  Si929  1  0.683651  0.359654  0.626628  1
  Si  Si930  1  0.683652  0.640296  0.753154  1
  Si  Si931  1  0.316484  0.640296  0.753154  1
  Si  Si932  1  0.316484  0.359654  0.626628  1
  Si  Si933  1  0.816433  0.645660  0.579262  1
  Si  Si934  1  0.816433  0.354289  0.800521  1
  Si  Si935  1  0.183700  0.354289  0.800521  1
  Si  Si936  1  0.183700  0.645660  0.579262  1
  Si  Si937  1  0.683988  0.706068  0.794129  1
  Si  Si938  1  0.683988  0.293880  0.585653  1
  Si  Si939  1  0.316145  0.293880  0.585653  1
  Si  Si940  1  0.316146  0.706068  0.794129  1
  Si  Si941  1  0.684873  0.947916  0.773613  1
  Si  Si942  1  0.315260  0.947915  0.773614  1
  Si  Si943  1  0.814790  0.953460  0.621100  1
  Si  Si944  1  0.185343  0.953461  0.621100  1
  Si  Si945  1  0.683489  0.798201  0.585898  1
  Si  Si946  1  0.316644  0.798201  0.585898  1
  Si  Si947  1  0.816396  0.857246  0.800495  1
  Si  Si948  1  0.183737  0.857246  0.800495  1
  Si  Si949  1  0.816667  0.803706  0.782913  1
  Si  Si950  1  0.183469  0.803706  0.782913  1
  Si  Si951  1  0.684874  0.949380  0.650617  1
  Si  Si952  1  0.315260  0.949380  0.650616  1
  Si  Si953  1  0.815893  0.858193  0.677248  1
  Si  Si954  1  0.184240  0.858194  0.677248  1
  Si  Si955  1  0.816563  0.796340  0.737997  1
  Si  Si956  1  0.183565  0.796338  0.737997  1
  Si  Si957  1  0.814802  0.951955  0.744125  1
  Si  Si958  1  0.185334  0.951954  0.744126  1
  Si  Si959  1  0.816737  0.296194  0.709682  1
  Si  Si960  1  0.816738  0.703755  0.670100  1
  Si  Si961  1  0.183398  0.703755  0.670100  1
  Si  Si962  1  0.183397  0.296194  0.709682  1
  Si  Si963  1  0.683404  0.695345  0.595828  1
  Si  Si964  1  0.683404  0.304604  0.783954  1
  Si  Si965  1  0.316730  0.304604  0.783954  1
  Si  Si966  1  0.316730  0.695345  0.595828  1
  Si  Si967  1  0.816077  0.698304  0.766615  1
  Si  Si968  1  0.816079  0.301647  0.613167  1
  Si  Si969  1  0.184055  0.301647  0.613167  1
  Si  Si970  1  0.184054  0.698302  0.766616  1
  Si  Si971  1  0.817430  0.807619  0.658687  1
  Si  Si972  1  0.182703  0.807619  0.658687  1
  Si  Si973  1  0.683601  0.548082  0.636129  1
  Si  Si974  1  0.683600  0.451867  0.743653  1
  Si  Si975  1  0.316531  0.451867  0.743653  1
  Si  Si976  1  0.316532  0.548082  0.636129  1
  Si  Si977  1  0.816780  0.449271  0.651657  1
  Si  Si978  1  0.816780  0.550677  0.728125  1
  Si  Si979  1  0.183354  0.550678  0.728125  1
  Si  Si980  1  0.183354  0.449271  0.651657  1
  Si  Si981  1  0.683474  0.551885  0.604623  1
  Si  Si982  1  0.683475  0.448065  0.775159  1
  Si  Si983  1  0.316660  0.448064  0.775159  1
  Si  Si984  1  0.316658  0.551885  0.604623  1
  Si  Si985  1  0.816570  0.453013  0.620159  1
  Si  Si986  1  0.816570  0.546936  0.759623  1
  Si  Si987  1  0.183564  0.546936  0.759623  1
  Si  Si988  1  0.183564  0.453013  0.620159  1
  Si  Si989  1  0.683750  0.207861  0.669901  1
  Si  Si990  1  0.316383  0.207861  0.669901  1
  Si  Si991  1  0.816372  0.203466  0.764746  1
  Si  Si992  1  0.183761  0.203466  0.764746  1
  Si  Si993  1  0.683489  0.201748  0.793884  1
  Si  Si994  1  0.316644  0.201748  0.793884  1
  Si  Si995  1  0.816665  0.196243  0.596869  1
  Si  Si996  1  0.183468  0.196243  0.596869  1
  Si  Si997  1  0.816570  0.203611  0.641784  1
  Si  Si998  1  0.183563  0.203611  0.641784  1
  Si  Si999  1  0.817430  0.192330  0.721095  1
  Si  Si1000  1  0.182702  0.192330  0.721095  1
  Si  Si1001  1  0.683897  0.137561  0.754448  1
  Si  Si1002  1  0.316237  0.137561  0.754447  1
  Si  Si1003  1  0.684167  0.140283  0.630307  1
  Si  Si1004  1  0.315966  0.140283  0.630307  1
  Si  Si1005  1  0.684873  0.052034  0.606169  1
  Si  Si1006  1  0.315260  0.052034  0.606169  1
  Si  Si1007  1  0.814791  0.046489  0.758682  1
  Si  Si1008  1  0.185343  0.046489  0.758682  1
  Si  Si1009  1  0.816397  0.142702  0.579287  1
  Si  Si1010  1  0.183737  0.142703  0.579287  1
  Si  Si1011  1  0.684873  0.050569  0.729166  1
  Si  Si1012  1  0.315260  0.050569  0.729166  1
  Si  Si1013  1  0.815894  0.141755  0.702535  1
  Si  Si1014  1  0.184240  0.141755  0.702535  1
  Si  Si1015  1  0.814800  0.047995  0.635657  1
  Si  Si1016  1  0.185332  0.047995  0.635657  1
  H  H1017  1  0.734077  0.667716  0.058277  1
  H  H1018  1  0.266058  0.667716  0.058277  1
  H  H1019  1  0.743085  0.166309  0.057962  1
  H  H1020  1  0.257047  0.166309  0.057962  1
  H  H1021  1  0.743084  0.833640  0.064546  1
  H  H1022  1  0.257046  0.833640  0.064547  1
  H  H1023  1  0.734078  0.332233  0.064231  1
  H  H1024  1  0.266057  0.332233  0.064231  1
  H  H1025  1  0.734077  0.667716  0.819846  1
  H  H1026  1  0.266058  0.667716  0.819846  1
  H  H1027  1  0.743085  0.166309  0.819530  1
  H  H1028  1  0.257047  0.166309  0.819530  1
  H  H1029  1  0.743084  0.833640  0.826115  1
  H  H1030  1  0.257046  0.833640  0.826115  1
  H  H1031  1  0.734078  0.332233  0.825799  1
  H  H1032  1  0.266057  0.332233  0.825799  1
