# generated using pymatgen
data_Si72H2O145
_symmetry_space_group_name_H-M   'P 1'
_cell_length_a   30.67096610
_cell_length_b   30.68027557
_cell_length_c   113.82722784
_cell_angle_alpha   90.00000000
_cell_angle_beta   90.00000000
_cell_angle_gamma   90.00000000
_symmetry_Int_Tables_number   1
_chemical_formula_structural   Si72H2O145
_chemical_formula_sum   'Si1152 H32 O2320'
_cell_volume   107110.703365
_cell_formula_units_Z   16
loop_
 _symmetry_equiv_pos_site_id
 _symmetry_equiv_pos_as_xyz
  1  'x, y, z'
loop_
 _atom_site_type_symbol
 _atom_site_label
 _atom_site_symmetry_multiplicity
 _atom_site_fract_x
 _atom_site_fract_y
 _atom_site_fract_z
 _atom_site_occupancy
  O  O1  1  0.113060  0.199572  0.051835  1
  O  O2  1  0.199605  0.113068  0.051837  1
  O  O3  1  0.300476  0.387005  0.051835  1
  O  O4  1  0.886957  0.199526  0.051833  1
  O  O5  1  0.699514  0.613051  0.051833  1
  O  O6  1  0.612958  0.699560  0.051837  1
  O  O7  1  0.886970  0.800439  0.051837  1
  O  O8  1  0.150455  0.230778  0.070672  1
  O  O9  1  0.069893  0.150410  0.114016  1
  O  O10  1  0.230790  0.069888  0.092367  1
  O  O11  1  0.150414  0.269273  0.205426  1
  O  O12  1  0.150411  0.230783  0.302484  1
  O  O13  1  0.069892  0.150427  0.259145  1
  O  O14  1  0.230791  0.069907  0.280797  1
  O  O15  1  0.150410  0.269229  0.167748  1
  O  O16  1  0.069903  0.230759  0.092360  1
  O  O17  1  0.230819  0.150444  0.070675  1
  O  O18  1  0.150414  0.069895  0.114014  1
  O  O19  1  0.069871  0.269247  0.227114  1
  O  O20  1  0.430115  0.230798  0.227113  1
  O  O21  1  0.269203  0.150427  0.205419  1
  O  O22  1  0.349586  0.069951  0.248769  1
  O  O23  1  0.430124  0.269287  0.092383  1
  O  O24  1  0.349600  0.269269  0.302491  1
  O  O25  1  0.349591  0.230767  0.167756  1
  O  O26  1  0.430089  0.150454  0.124406  1
  O  O27  1  0.269202  0.069908  0.146047  1
  O  O28  1  0.349638  0.269272  0.070680  1
  O  O29  1  0.349575  0.230743  0.205424  1
  O  O30  1  0.430110  0.150449  0.248772  1
  O  O31  1  0.269217  0.069894  0.227122  1
  O  O32  1  0.430135  0.269266  0.280796  1
  O  O33  1  0.430153  0.230798  0.146062  1
  O  O34  1  0.269243  0.150437  0.167744  1
  O  O35  1  0.349589  0.069943  0.124399  1
  O  O36  1  0.069896  0.269234  0.146046  1
  O  O37  1  0.069845  0.230802  0.280797  1
  O  O38  1  0.230775  0.150470  0.302488  1
  O  O39  1  0.150397  0.069915  0.259154  1
  O  O40  1  0.211991  0.119617  0.108956  1
  O  O41  1  0.212026  0.212004  0.084077  1
  O  O42  1  0.119616  0.211978  0.108957  1
  O  O43  1  0.211991  0.288055  0.218824  1
  O  O44  1  0.119567  0.288045  0.243710  1
  O  O45  1  0.211976  0.119636  0.264207  1
  O  O46  1  0.211971  0.212020  0.289080  1
  O  O47  1  0.119579  0.212023  0.264203  1
  O  O48  1  0.211974  0.288026  0.154344  1
  O  O49  1  0.119619  0.288004  0.129451  1
  O  O50  1  0.287990  0.119653  0.243708  1
  O  O51  1  0.380399  0.212026  0.243710  1
  O  O52  1  0.287998  0.211966  0.218827  1
  O  O53  1  0.380415  0.288083  0.108980  1
  O  O54  1  0.288049  0.288054  0.084071  1
  O  O55  1  0.288022  0.288058  0.289087  1
  O  O56  1  0.380418  0.288063  0.264200  1
  O  O57  1  0.287997  0.119642  0.129456  1
  O  O58  1  0.288047  0.212003  0.154343  1
  O  O59  1  0.380398  0.212044  0.129472  1
  O  O60  1  0.208580  0.208582  0.160395  1
  O  O61  1  0.402831  0.208624  0.108059  1
  O  O62  1  0.208539  0.097166  0.242798  1
  O  O63  1  0.208552  0.291465  0.295133  1
  O  O64  1  0.402860  0.291474  0.242786  1
  O  O65  1  0.208545  0.208592  0.212775  1
  O  O66  1  0.402845  0.208604  0.265122  1
  O  O67  1  0.208547  0.097179  0.130371  1
  O  O68  1  0.208592  0.291455  0.078022  1
  O  O69  1  0.402892  0.291491  0.130391  1
  O  O70  1  0.097153  0.208579  0.242790  1
  O  O71  1  0.291437  0.208615  0.295136  1
  O  O72  1  0.291455  0.097190  0.108045  1
  O  O73  1  0.097157  0.291420  0.108038  1
  O  O74  1  0.291432  0.291445  0.160402  1
  O  O75  1  0.291441  0.097206  0.265120  1
  O  O76  1  0.291434  0.291420  0.212767  1
  O  O77  1  0.097110  0.291477  0.265120  1
  O  O78  1  0.291491  0.208593  0.078031  1
  O  O79  1  0.097166  0.208556  0.130372  1
  O  O80  1  0.148390  0.258295  0.091820  1
  O  O81  1  0.148370  0.148372  0.121433  1
  O  O82  1  0.258324  0.148376  0.091822  1
  O  O83  1  0.148367  0.241757  0.226575  1
  O  O84  1  0.148328  0.258334  0.281339  1
  O  O85  1  0.148366  0.148399  0.251731  1
  O  O86  1  0.258298  0.148402  0.281342  1
  O  O87  1  0.148369  0.241705  0.146596  1
  O  O88  1  0.351622  0.258298  0.226570  1
  O  O89  1  0.241654  0.148355  0.226567  1
  O  O90  1  0.351615  0.148431  0.256184  1
  O  O91  1  0.351645  0.241785  0.091836  1
  O  O92  1  0.351643  0.241766  0.281340  1
  O  O93  1  0.351681  0.258352  0.146614  1
  O  O94  1  0.351609  0.148440  0.116990  1
  O  O95  1  0.241704  0.148394  0.146595  1
  O  O96  1  0.150092  0.055577  0.092270  1
  O  O97  1  0.150130  0.150099  0.066811  1
  O  O98  1  0.055582  0.150075  0.092269  1
  O  O99  1  0.150098  0.055588  0.280898  1
  O  O100  1  0.150091  0.150093  0.306348  1
  O  O101  1  0.055551  0.150115  0.280890  1
  O  O102  1  0.349919  0.055618  0.227027  1
  O  O103  1  0.444444  0.150114  0.227029  1
  O  O104  1  0.349904  0.150071  0.201561  1
  O  O105  1  0.349888  0.055594  0.146142  1
  O  O106  1  0.349928  0.150075  0.171609  1
  O  O107  1  0.444439  0.150105  0.146149  1
  O  O108  1  0.079168  0.188698  0.073154  1
  O  O109  1  0.079135  0.079132  0.102676  1
  O  O110  1  0.188747  0.079149  0.073157  1
  O  O111  1  0.079128  0.311331  0.207907  1
  O  O112  1  0.079124  0.188723  0.300005  1
  O  O113  1  0.079138  0.079166  0.270495  1
  O  O114  1  0.188754  0.079150  0.300009  1
  O  O115  1  0.079133  0.311296  0.165258  1
  O  O116  1  0.420868  0.188694  0.207910  1
  O  O117  1  0.311267  0.079150  0.207908  1
  O  O118  1  0.420869  0.079176  0.237434  1
  O  O119  1  0.420904  0.311345  0.073168  1
  O  O120  1  0.420893  0.311325  0.300006  1
  O  O121  1  0.420884  0.188711  0.165268  1
  O  O122  1  0.420849  0.079170  0.135743  1
  O  O123  1  0.311269  0.079142  0.165259  1
  O  O124  1  -0.000000  0.113032  0.105602  1
  O  O125  1  0.113060  0.199572  0.321323  1
  O  O126  1  0.113026  0.300452  0.186586  1
  O  O127  1  0.199579  -0.000000  0.290876  1
  O  O128  1  0.199553  0.000000  0.082286  1
  O  O129  1  0.113022  -0.000000  0.105603  1
  O  O130  1  0.113001  -0.000000  0.267570  1
  O  O131  1  0.199605  0.113068  0.321325  1
  O  O132  1  0.300426  0.113036  0.186582  1
  O  O133  1  0.387009  0.300478  0.051841  1
  O  O134  1  0.386976  0.199539  0.186588  1
  O  O135  1  0.386980  -0.000000  0.240361  1
  O  O136  1  0.300479  0.000000  0.217040  1
  O  O137  1  0.300409  -0.000000  0.156129  1
  O  O138  1  0.386957  0.000000  0.132814  1
  O  O139  1  -0.000000  0.113031  0.267554  1
  O  O140  1  -0.000000  0.300476  0.156124  1
  O  O141  1  0.499985  0.113047  0.132813  1
  O  O142  1  -0.000000  0.199546  0.082278  1
  O  O143  1  0.069808  0.650386  0.248781  1
  O  O144  1  0.230718  0.569923  0.227133  1
  O  O145  1  0.069852  0.349628  0.248767  1
  O  O146  1  0.230783  0.430127  0.227115  1
  O  O147  1  0.069897  0.650429  0.124407  1
  O  O148  1  0.230734  0.569862  0.146053  1
  O  O149  1  0.069882  0.349565  0.124389  1
  O  O150  1  0.230733  0.430087  0.146043  1
  O  O151  1  0.230765  0.650423  0.205425  1
  O  O152  1  0.150360  0.569876  0.248779  1
  O  O153  1  0.230780  0.349596  0.205413  1
  O  O154  1  0.150411  0.430094  0.248759  1
  O  O155  1  0.269244  0.650434  0.070686  1
  O  O156  1  0.349599  0.569911  0.114034  1
  O  O157  1  0.269268  0.349616  0.070668  1
  O  O158  1  0.349603  0.430148  0.114028  1
  O  O159  1  0.430150  0.349620  0.259142  1
  O  O160  1  0.269236  0.430121  0.280785  1
  O  O161  1  0.430041  0.650437  0.259147  1
  O  O162  1  0.269190  0.569885  0.280805  1
  O  O163  1  0.430155  0.349642  0.114036  1
  O  O164  1  0.269275  0.430114  0.092374  1
  O  O165  1  0.430093  0.650434  0.114036  1
  O  O166  1  0.269236  0.569893  0.092381  1
  O  O167  1  0.269234  0.349604  0.302488  1
  O  O168  1  0.349616  0.430125  0.259140  1
  O  O169  1  0.269211  0.650404  0.302503  1
  O  O170  1  0.349535  0.569906  0.259147  1
  O  O171  1  0.230755  0.349596  0.167744  1
  O  O172  1  0.150413  0.430092  0.124382  1
  O  O173  1  0.230759  0.650337  0.167761  1
  O  O174  1  0.150391  0.569890  0.124398  1
  O  O175  1  0.211907  0.619645  0.243724  1
  O  O176  1  0.211997  0.380373  0.243701  1
  O  O177  1  0.211972  0.619608  0.129467  1
  O  O178  1  0.211977  0.380357  0.129449  1
  O  O179  1  0.288015  0.619618  0.108975  1
  O  O180  1  0.288062  0.380387  0.108966  1
  O  O181  1  0.288034  0.380395  0.264195  1
  O  O182  1  0.287961  0.619623  0.264214  1
  O  O183  1  0.208588  0.402818  0.108039  1
  O  O184  1  0.208561  0.597162  0.108053  1
  O  O185  1  0.208567  0.402837  0.265110  1
  O  O186  1  0.208504  0.597154  0.265134  1
  O  O187  1  0.291461  0.402860  0.242786  1
  O  O188  1  0.291371  0.597200  0.242802  1
  O  O189  1  0.291429  0.597150  0.130386  1
  O  O190  1  0.291429  0.402855  0.130376  1
  O  O191  1  0.148279  0.648338  0.256206  1
  O  O192  1  0.258239  0.648406  0.226580  1
  O  O193  1  0.148353  0.351638  0.256181  1
  O  O194  1  0.258338  0.351662  0.226560  1
  O  O195  1  0.148370  0.648372  0.116985  1
  O  O196  1  0.258294  0.648326  0.146614  1
  O  O197  1  0.148367  0.351611  0.116968  1
  O  O198  1  0.258290  0.351623  0.146594  1
  O  O199  1  0.241715  0.648374  0.091834  1
  O  O200  1  0.351615  0.648385  0.121456  1
  O  O201  1  0.241752  0.351645  0.091819  1
  O  O202  1  0.351680  0.351689  0.121459  1
  O  O203  1  0.351669  0.351664  0.251719  1
  O  O204  1  0.241708  0.351652  0.281336  1
  O  O205  1  0.351562  0.648403  0.251733  1
  O  O206  1  0.241663  0.648358  0.281356  1
  O  O207  1  0.150035  0.555575  0.227033  1
  O  O208  1  0.150081  0.650068  0.201570  1
  O  O209  1  0.055516  0.650040  0.227036  1
  O  O210  1  0.150083  0.444432  0.227017  1
  O  O211  1  0.150085  0.349953  0.201558  1
  O  O212  1  0.055539  0.349934  0.227022  1
  O  O213  1  0.150037  0.555543  0.146140  1
  O  O214  1  0.150064  0.650030  0.171619  1
  O  O215  1  0.055580  0.650075  0.146150  1
  O  O216  1  0.150048  0.444408  0.146127  1
  O  O217  1  0.150068  0.349909  0.171609  1
  O  O218  1  0.055584  0.349922  0.146135  1
  O  O219  1  0.349925  0.555594  0.092288  1
  O  O220  1  0.444431  0.650132  0.092291  1
  O  O221  1  0.349931  0.650093  0.066826  1
  O  O222  1  0.349959  0.444454  0.092282  1
  O  O223  1  0.444456  0.349966  0.092289  1
  O  O224  1  0.349960  0.349957  0.066812  1
  O  O225  1  0.349932  0.444437  0.280884  1
  O  O226  1  0.349937  0.349940  0.306350  1
  O  O227  1  0.444467  0.349945  0.280889  1
  O  O228  1  0.349881  0.555572  0.280891  1
  O  O229  1  0.349905  0.650078  0.306363  1
  O  O230  1  0.444372  0.650090  0.280891  1
  O  O231  1  0.079068  0.579102  0.237445  1
  O  O232  1  0.188692  0.579139  0.207919  1
  O  O233  1  0.079119  0.420875  0.237421  1
  O  O234  1  0.188738  0.420894  0.207902  1
  O  O235  1  0.079104  0.579122  0.135733  1
  O  O236  1  0.188657  0.579080  0.165263  1
  O  O237  1  0.079123  0.420857  0.135717  1
  O  O238  1  0.188650  0.420848  0.165251  1
  O  O239  1  0.311301  0.579148  0.073171  1
  O  O240  1  0.420869  0.579172  0.102692  1
  O  O241  1  0.311335  0.420894  0.073161  1
  O  O242  1  0.420898  0.420911  0.102695  1
  O  O243  1  0.420900  0.420891  0.270481  1
  O  O244  1  0.311301  0.420869  0.299997  1
  O  O245  1  0.420809  0.579152  0.270483  1
  O  O246  1  0.311281  0.579126  0.300013  1
  O  O247  1  0.199553  0.500022  0.217046  1
  O  O248  1  -0.000000  0.386996  0.132804  1
  O  O249  1  0.199505  0.499969  0.156122  1
  O  O250  1  0.112999  0.499984  0.240356  1
  O  O251  1  0.199531  0.612970  0.186593  1
  O  O252  1  0.199549  0.386993  0.186579  1
  O  O253  1  0.387003  0.500034  0.105616  1
  O  O254  1  0.300446  0.613029  0.051850  1
  O  O255  1  0.300476  0.387005  0.321323  1
  O  O256  1  0.300435  0.499995  0.290874  1
  O  O257  1  0.300470  0.500012  0.082298  1
  O  O258  1  0.386973  0.500016  0.267557  1
  O  O259  1  0.112997  0.499988  0.132797  1
  O  O260  1  0.499930  0.613018  0.267554  1
  O  O261  1  0.499995  0.613070  0.105622  1
  O  O262  1  0.150382  0.730761  0.205430  1
  O  O263  1  0.150416  0.769230  0.070681  1
  O  O264  1  0.069898  0.849592  0.114039  1
  O  O265  1  0.230767  0.930127  0.092372  1
  O  O266  1  0.150434  0.730722  0.167766  1
  O  O267  1  0.150378  0.769237  0.302493  1
  O  O268  1  0.069898  0.849604  0.259142  1
  O  O269  1  0.230757  0.930105  0.280797  1
  O  O270  1  0.069861  0.730732  0.227125  1
  O  O271  1  0.069895  0.769247  0.092382  1
  O  O272  1  0.230768  0.849581  0.070678  1
  O  O273  1  0.150419  0.930129  0.114026  1
  O  O274  1  0.430109  0.730815  0.092389  1
  O  O275  1  0.430077  0.769286  0.227127  1
  O  O276  1  0.269176  0.849621  0.205427  1
  O  O277  1  0.349582  0.930164  0.248776  1
  O  O278  1  0.349577  0.769227  0.167769  1
  O  O279  1  0.430060  0.849606  0.124418  1
  O  O280  1  0.269202  0.930104  0.146060  1
  O  O281  1  0.349551  0.730765  0.302505  1
  O  O282  1  0.349543  0.769285  0.205433  1
  O  O283  1  0.430095  0.849625  0.248786  1
  O  O284  1  0.269247  0.930168  0.227120  1
  O  O285  1  0.349586  0.730780  0.070687  1
  O  O286  1  0.430111  0.769255  0.146065  1
  O  O287  1  0.269237  0.849576  0.167748  1
  O  O288  1  0.349570  0.930137  0.124404  1
  O  O289  1  0.430062  0.730780  0.280801  1
  O  O290  1  0.069872  0.769258  0.280793  1
  O  O291  1  0.230729  0.849583  0.302487  1
  O  O292  1  0.150389  0.930150  0.259146  1
  O  O293  1  0.069936  0.730764  0.146062  1
  O  O294  1  0.211960  0.712000  0.218826  1
  O  O295  1  0.119562  0.711945  0.243719  1
  O  O296  1  0.211985  0.880406  0.108968  1
  O  O297  1  0.211973  0.788032  0.084086  1
  O  O298  1  0.119620  0.788023  0.108978  1
  O  O299  1  0.212002  0.711927  0.154367  1
  O  O300  1  0.119650  0.711985  0.129468  1
  O  O301  1  0.211951  0.880407  0.264199  1
  O  O302  1  0.211941  0.788006  0.289089  1
  O  O303  1  0.119622  0.788036  0.264201  1
  O  O304  1  0.380369  0.712007  0.108979  1
  O  O305  1  0.288027  0.711993  0.084091  1
  O  O306  1  0.288008  0.880443  0.243711  1
  O  O307  1  0.380365  0.788060  0.243722  1
  O  O308  1  0.287966  0.788068  0.218834  1
  O  O309  1  0.287995  0.880410  0.129465  1
  O  O310  1  0.288039  0.787971  0.154356  1
  O  O311  1  0.380343  0.788015  0.129483  1
  O  O312  1  0.287986  0.711968  0.289102  1
  O  O313  1  0.380326  0.712016  0.264209  1
  O  O314  1  0.208551  0.902918  0.242793  1
  O  O315  1  0.208528  0.708559  0.295150  1
  O  O316  1  0.402787  0.708598  0.242798  1
  O  O317  1  0.208599  0.791395  0.160410  1
  O  O318  1  0.402810  0.791458  0.108069  1
  O  O319  1  0.208548  0.902840  0.130385  1
  O  O320  1  0.208570  0.708574  0.078038  1
  O  O321  1  0.402839  0.708570  0.130391  1
  O  O322  1  0.208511  0.791468  0.212784  1
  O  O323  1  0.402788  0.791473  0.265136  1
  O  O324  1  0.291433  0.902858  0.108050  1
  O  O325  1  0.097164  0.708578  0.108058  1
  O  O326  1  0.291444  0.708512  0.160420  1
  O  O327  1  0.097144  0.791427  0.242794  1
  O  O328  1  0.291388  0.791430  0.295147  1
  O  O329  1  0.291432  0.791442  0.078036  1
  O  O330  1  0.097213  0.791446  0.130394  1
  O  O331  1  0.291414  0.902862  0.265124  1
  O  O332  1  0.291411  0.708603  0.212783  1
  O  O333  1  0.097100  0.708578  0.265126  1
  O  O334  1  0.148342  0.758259  0.226581  1
  O  O335  1  0.148369  0.741718  0.091835  1
  O  O336  1  0.148379  0.851644  0.121448  1
  O  O337  1  0.258288  0.851651  0.091828  1
  O  O338  1  0.148416  0.758257  0.146615  1
  O  O339  1  0.148335  0.741698  0.281344  1
  O  O340  1  0.148352  0.851671  0.251715  1
  O  O341  1  0.258253  0.851614  0.281337  1
  O  O342  1  0.351632  0.758325  0.091838  1
  O  O343  1  0.351590  0.741769  0.226582  1
  O  O344  1  0.241668  0.851698  0.226574  1
  O  O345  1  0.351609  0.851677  0.256193  1
  O  O346  1  0.351661  0.741647  0.146626  1
  O  O347  1  0.351591  0.851636  0.116998  1
  O  O348  1  0.241718  0.851592  0.146601  1
  O  O349  1  0.351588  0.758298  0.281356  1
  O  O350  1  0.150082  0.944430  0.092278  1
  O  O351  1  0.150086  0.849912  0.066814  1
  O  O352  1  0.055596  0.849928  0.092291  1
  O  O353  1  0.150078  0.944452  0.280892  1
  O  O354  1  0.150047  0.849926  0.306354  1
  O  O355  1  0.055559  0.849934  0.280888  1
  O  O356  1  0.349949  0.944459  0.227029  1
  O  O357  1  0.444405  0.849976  0.227041  1
  O  O358  1  0.349862  0.849958  0.201564  1
  O  O359  1  0.349891  0.944463  0.146147  1
  O  O360  1  0.349906  0.849933  0.171617  1
  O  O361  1  0.444407  0.849962  0.146157  1
  O  O362  1  0.079120  0.688649  0.207920  1
  O  O363  1  0.079152  0.811312  0.073170  1
  O  O364  1  0.079146  0.920869  0.102693  1
  O  O365  1  0.188704  0.920864  0.073161  1
  O  O366  1  0.079139  0.688684  0.165270  1
  O  O367  1  0.079099  0.811303  0.300007  1
  O  O368  1  0.079130  0.920883  0.270486  1
  O  O369  1  0.188691  0.920876  0.300007  1
  O  O370  1  0.420871  0.688746  0.073175  1
  O  O371  1  0.420810  0.811380  0.207923  1
  O  O372  1  0.311282  0.920898  0.207909  1
  O  O373  1  0.420883  0.920924  0.237451  1
  O  O374  1  0.420854  0.811315  0.165274  1
  O  O375  1  0.420842  0.920907  0.135745  1
  O  O376  1  0.311282  0.920881  0.165265  1
  O  O377  1  0.420838  0.688713  0.300012  1
  O  O378  1  0.113009  0.699511  0.186596  1
  O  O379  1  0.113010  0.800442  0.051843  1
  O  O380  1  0.499997  0.699612  0.082305  1
  O  O381  1  0.499949  0.800508  0.217040  1
  O  O382  1  0.199554  0.886963  0.051839  1
  O  O383  1  0.300393  0.886989  0.186586  1
  O  O384  1  0.499997  0.886997  0.240371  1
  O  O385  1  0.386957  0.800483  0.186598  1
  O  O386  1  0.386970  0.699561  0.051850  1
  O  O387  1  0.499956  0.699548  0.290872  1
  O  O388  1  0.000000  0.699583  0.156130  1
  O  O389  1  -0.000000  0.887009  0.105616  1
  O  O390  1  0.499966  0.887016  0.132814  1
  O  O391  1  -0.000000  0.886992  0.267553  1
  O  O392  1  -0.000000  0.800490  0.082295  1
  O  O393  1  0.499989  0.800496  0.156136  1
  O  O394  1  0.650446  0.230737  0.205429  1
  O  O395  1  0.569910  0.150403  0.248776  1
  O  O396  1  0.730788  0.069862  0.227120  1
  O  O397  1  0.650451  0.269276  0.070686  1
  O  O398  1  0.650430  0.230778  0.167752  1
  O  O399  1  0.569878  0.150440  0.124398  1
  O  O400  1  0.730768  0.069916  0.146052  1
  O  O401  1  0.650440  0.269239  0.302500  1
  O  O402  1  0.569912  0.230768  0.227123  1
  O  O403  1  0.730796  0.150399  0.205422  1
  O  O404  1  0.650412  0.069883  0.248767  1
  O  O405  1  0.569919  0.269284  0.092381  1
  O  O406  1  0.930157  0.230800  0.092365  1
  O  O407  1  0.769246  0.150444  0.070687  1
  O  O408  1  0.849620  0.069933  0.114035  1
  O  O409  1  0.930103  0.269254  0.227117  1
  O  O410  1  0.849604  0.269289  0.167742  1
  O  O411  1  0.849552  0.230709  0.302485  1
  O  O412  1  0.930107  0.150410  0.259137  1
  O  O413  1  0.769243  0.069825  0.280798  1
  O  O414  1  0.849593  0.269249  0.205410  1
  O  O415  1  0.849596  0.230789  0.070668  1
  O  O416  1  0.930135  0.150459  0.114019  1
  O  O417  1  0.769242  0.069933  0.092386  1
  O  O418  1  0.930119  0.269285  0.146045  1
  O  O419  1  0.930086  0.230768  0.280794  1
  O  O420  1  0.769198  0.150375  0.302495  1
  O  O421  1  0.849613  0.069880  0.259152  1
  O  O422  1  0.569916  0.269227  0.280800  1
  O  O423  1  0.569906  0.230781  0.146056  1
  O  O424  1  0.730792  0.150431  0.167755  1
  O  O425  1  0.650419  0.069929  0.124401  1
  O  O426  1  0.712014  0.119591  0.243710  1
  O  O427  1  0.712025  0.211943  0.218830  1
  O  O428  1  0.619638  0.211962  0.243717  1
  O  O429  1  0.712020  0.288069  0.084089  1
  O  O430  1  0.619645  0.288067  0.108975  1
  O  O431  1  0.711994  0.119660  0.129465  1
  O  O432  1  0.712003  0.211995  0.154353  1
  O  O433  1  0.619612  0.212007  0.129460  1
  O  O434  1  0.711995  0.288027  0.289094  1
  O  O435  1  0.619648  0.288007  0.264206  1
  O  O436  1  0.788050  0.119657  0.108978  1
  O  O437  1  0.880418  0.212031  0.108958  1
  O  O438  1  0.788068  0.212034  0.084081  1
  O  O439  1  0.880368  0.288032  0.243709  1
  O  O440  1  0.788038  0.288013  0.218817  1
  O  O441  1  0.788027  0.288052  0.154342  1
  O  O442  1  0.880387  0.288068  0.129452  1
  O  O443  1  0.788021  0.119576  0.264211  1
  O  O444  1  0.787990  0.211924  0.289084  1
  O  O445  1  0.880383  0.211985  0.264197  1
  O  O446  1  0.708559  0.208546  0.295143  1
  O  O447  1  0.902821  0.208566  0.242787  1
  O  O448  1  0.708582  0.097218  0.108055  1
  O  O449  1  0.708574  0.291455  0.160397  1
  O  O450  1  0.902866  0.291488  0.108040  1
  O  O451  1  0.708605  0.208613  0.078039  1
  O  O452  1  0.902868  0.208623  0.130370  1
  O  O453  1  0.708574  0.097097  0.265120  1
  O  O454  1  0.708584  0.291408  0.212778  1
  O  O455  1  0.902824  0.291447  0.265120  1
  O  O456  1  0.597175  0.208606  0.108050  1
  O  O457  1  0.791463  0.208602  0.160400  1
  O  O458  1  0.791463  0.097122  0.242798  1
  O  O459  1  0.597205  0.291429  0.242795  1
  O  O460  1  0.791431  0.291397  0.295140  1
  O  O461  1  0.791467  0.097206  0.130387  1
  O  O462  1  0.791469  0.291493  0.078030  1
  O  O463  1  0.597184  0.291474  0.130385  1
  O  O464  1  0.791465  0.208550  0.212767  1
  O  O465  1  0.597197  0.208545  0.265128  1
  O  O466  1  0.648409  0.258252  0.226579  1
  O  O467  1  0.648401  0.148347  0.256191  1
  O  O468  1  0.758355  0.148325  0.226569  1
  O  O469  1  0.648403  0.241760  0.091835  1
  O  O470  1  0.648389  0.258291  0.146601  1
  O  O471  1  0.648369  0.148404  0.116985  1
  O  O472  1  0.758316  0.148390  0.146608  1
  O  O473  1  0.648390  0.241713  0.281348  1
  O  O474  1  0.851694  0.258347  0.091815  1
  O  O475  1  0.741761  0.148432  0.091840  1
  O  O476  1  0.851666  0.148422  0.121447  1
  O  O477  1  0.851643  0.241717  0.226562  1
  O  O478  1  0.851645  0.241748  0.146594  1
  O  O479  1  0.851601  0.258261  0.281336  1
  O  O480  1  0.851623  0.148361  0.251729  1
  O  O481  1  0.741669  0.148293  0.281348  1
  O  O482  1  0.650080  0.055580  0.227024  1
  O  O483  1  0.650097  0.150066  0.201563  1
  O  O484  1  0.555568  0.150095  0.227030  1
  O  O485  1  0.650067  0.055599  0.146143  1
  O  O486  1  0.650101  0.150093  0.171614  1
  O  O487  1  0.555579  0.150090  0.146143  1
  O  O488  1  0.849921  0.055599  0.092290  1
  O  O489  1  0.944440  0.150108  0.092273  1
  O  O490  1  0.849919  0.150085  0.066816  1
  O  O491  1  0.849944  0.055555  0.280898  1
  O  O492  1  0.849882  0.150028  0.306355  1
  O  O493  1  0.944426  0.150084  0.280881  1
  O  O494  1  0.579150  0.188696  0.207913  1
  O  O495  1  0.579126  0.079144  0.237431  1
  O  O496  1  0.688727  0.079127  0.207909  1
  O  O497  1  0.579156  0.311331  0.073170  1
  O  O498  1  0.579159  0.188698  0.165264  1
  O  O499  1  0.579118  0.079154  0.135732  1
  O  O500  1  0.688706  0.079152  0.165261  1
  O  O501  1  0.579162  0.311298  0.300012  1
  O  O502  1  0.920872  0.188719  0.073156  1
  O  O503  1  0.811293  0.079151  0.073173  1
  O  O504  1  0.920874  0.079172  0.102686  1
  O  O505  1  0.920859  0.311320  0.207904  1
  O  O506  1  0.920880  0.311357  0.165255  1
  O  O507  1  0.920827  0.188651  0.299998  1
  O  O508  1  0.920889  0.079130  0.270483  1
  O  O509  1  0.811262  0.079084  0.300015  1
  O  O510  1  0.613046  0.199557  0.186590  1
  O  O511  1  0.613055  0.300461  0.051848  1
  O  O512  1  0.699534  -0.000000  0.217038  1
  O  O513  1  0.886999  0.000000  0.105618  1
  O  O514  1  0.699572  0.113018  0.186586  1
  O  O515  1  0.500022  0.300487  0.082305  1
  O  O516  1  0.800408  0.113015  0.051849  1
  O  O517  1  0.886986  0.300502  0.186578  1
  O  O518  1  0.886957  0.199526  0.321321  1
  O  O519  1  0.699545  0.000000  0.156126  1
  O  O520  1  0.613015  0.000000  0.132809  1
  O  O521  1  0.800443  0.000000  0.082305  1
  O  O522  1  0.500002  0.113043  0.240363  1
  O  O523  1  0.500012  0.199574  0.217040  1
  O  O524  1  0.613000  -0.000000  0.240355  1
  O  O525  1  -0.000000  0.300466  0.217034  1
  O  O526  1  -0.000000  0.199557  0.290878  1
  O  O527  1  0.500029  0.300457  0.290878  1
  O  O528  1  0.500028  0.199551  0.156138  1
  O  O529  1  0.569896  0.650472  0.114031  1
  O  O530  1  0.730753  0.569951  0.092366  1
  O  O531  1  0.569914  0.349634  0.114033  1
  O  O532  1  0.730766  0.430178  0.092376  1
  O  O533  1  0.569806  0.650408  0.259134  1
  O  O534  1  0.730694  0.569908  0.280786  1
  O  O535  1  0.569926  0.349577  0.259147  1
  O  O536  1  0.730785  0.430125  0.280802  1
  O  O537  1  0.730748  0.650467  0.070664  1
  O  O538  1  0.650422  0.569956  0.114022  1
  O  O539  1  0.730789  0.349634  0.070686  1
  O  O540  1  0.650412  0.430182  0.114031  1
  O  O541  1  0.769202  0.650452  0.205409  1
  O  O542  1  0.849492  0.569935  0.248762  1
  O  O543  1  0.769224  0.349588  0.205421  1
  O  O544  1  0.849582  0.430143  0.248767  1
  O  O545  1  0.930102  0.349643  0.124393  1
  O  O546  1  0.769242  0.430156  0.146053  1
  O  O547  1  0.930119  0.650469  0.124398  1
  O  O548  1  0.769257  0.569946  0.146041  1
  O  O549  1  0.930093  0.349612  0.248764  1
  O  O550  1  0.769214  0.430109  0.227116  1
  O  O551  1  0.930029  0.650430  0.248771  1
  O  O552  1  0.769140  0.569926  0.227109  1
  O  O553  1  0.769237  0.349614  0.167745  1
  O  O554  1  0.849597  0.430155  0.124402  1
  O  O555  1  0.769277  0.650447  0.167741  1
  O  O556  1  0.849607  0.569937  0.124384  1
  O  O557  1  0.730793  0.349586  0.302498  1
  O  O558  1  0.650436  0.430111  0.259147  1
  O  O559  1  0.730706  0.650432  0.302483  1
  O  O560  1  0.650334  0.569885  0.259135  1
  O  O561  1  0.711991  0.619684  0.108958  1
  O  O562  1  0.711978  0.380455  0.108970  1
  O  O563  1  0.711883  0.619629  0.264193  1
  O  O564  1  0.712015  0.380397  0.264210  1
  O  O565  1  0.787921  0.619667  0.243699  1
  O  O566  1  0.788033  0.380402  0.243713  1
  O  O567  1  0.788026  0.380429  0.129461  1
  O  O568  1  0.788047  0.619665  0.129445  1
  O  O569  1  0.708581  0.402832  0.242795  1
  O  O570  1  0.708470  0.597191  0.242778  1
  O  O571  1  0.708570  0.402903  0.130381  1
  O  O572  1  0.708590  0.597226  0.130370  1
  O  O573  1  0.791433  0.402912  0.108052  1
  O  O574  1  0.791450  0.597226  0.108032  1
  O  O575  1  0.791344  0.597204  0.265110  1
  O  O576  1  0.791457  0.402867  0.265126  1
  O  O577  1  0.648386  0.648430  0.121443  1
  O  O578  1  0.758278  0.648426  0.091813  1
  O  O579  1  0.648379  0.351695  0.121453  1
  O  O580  1  0.758312  0.351695  0.091833  1
  O  O581  1  0.648269  0.648363  0.251713  1
  O  O582  1  0.758194  0.648398  0.281331  1
  O  O583  1  0.648408  0.351626  0.251731  1
  O  O584  1  0.758324  0.351646  0.281350  1
  O  O585  1  0.741626  0.648407  0.226555  1
  O  O586  1  0.851535  0.648421  0.256179  1
  O  O587  1  0.741734  0.351613  0.226574  1
  O  O588  1  0.851640  0.351661  0.256190  1
  O  O589  1  0.851630  0.351680  0.116975  1
  O  O590  1  0.741706  0.351671  0.146599  1
  O  O591  1  0.851652  0.648424  0.116970  1
  O  O592  1  0.741761  0.648428  0.146589  1
  O  O593  1  0.650060  0.555634  0.092278  1
  O  O594  1  0.650054  0.650123  0.066810  1
  O  O595  1  0.555560  0.650135  0.092289  1
  O  O596  1  0.650080  0.444492  0.092284  1
  O  O597  1  0.650100  0.349954  0.066822  1
  O  O598  1  0.555598  0.349967  0.092287  1
  O  O599  1  0.650015  0.555570  0.280883  1
  O  O600  1  0.650020  0.650084  0.306349  1
  O  O601  1  0.555513  0.650067  0.280880  1
  O  O602  1  0.650092  0.444428  0.280892  1
  O  O603  1  0.650108  0.349926  0.306361  1
  O  O604  1  0.555604  0.349910  0.280892  1
  O  O605  1  0.849829  0.555598  0.227020  1
  O  O606  1  0.944387  0.650096  0.227030  1
  O  O607  1  0.849896  0.650095  0.201560  1
  O  O608  1  0.849886  0.444470  0.227019  1
  O  O609  1  0.944404  0.349944  0.227020  1
  O  O610  1  0.849909  0.349945  0.201557  1
  O  O611  1  0.849934  0.444480  0.146146  1
  O  O612  1  0.849924  0.349975  0.171605  1
  O  O613  1  0.944441  0.349965  0.146138  1
  O  O614  1  0.849930  0.555615  0.146131  1
  O  O615  1  0.849965  0.650112  0.171608  1
  O  O616  1  0.944435  0.650129  0.146144  1
  O  O617  1  0.579124  0.579193  0.102693  1
  O  O618  1  0.688679  0.579184  0.073158  1
  O  O619  1  0.579146  0.420921  0.102693  1
  O  O620  1  0.688705  0.420911  0.073167  1
  O  O621  1  0.579061  0.579117  0.270472  1
  O  O622  1  0.688646  0.579144  0.299999  1
  O  O623  1  0.579162  0.420851  0.270485  1
  O  O624  1  0.688722  0.420873  0.300012  1
  O  O625  1  0.811229  0.579153  0.207902  1
  O  O626  1  0.920775  0.579166  0.237428  1
  O  O627  1  0.811265  0.420889  0.207904  1
  O  O628  1  0.920836  0.420900  0.237423  1
  O  O629  1  0.920879  0.420917  0.135736  1
  O  O630  1  0.811288  0.420918  0.165263  1
  O  O631  1  0.920868  0.579185  0.135731  1
  O  O632  1  0.811341  0.579176  0.165252  1
  O  O633  1  0.699532  0.500057  0.082292  1
  O  O634  1  0.500031  0.387033  0.105618  1
  O  O635  1  -0.000000  0.612995  0.240364  1
  O  O636  1  0.699524  0.500014  0.290874  1
  O  O637  1  0.613014  0.500066  0.105613  1
  O  O638  1  0.699514  0.613051  0.321321  1
  O  O639  1  0.699583  0.386991  0.051846  1
  O  O640  1  0.886922  0.500040  0.240350  1
  O  O641  1  0.800458  0.613050  0.186577  1
  O  O642  1  0.800425  0.386990  0.186583  1
  O  O643  1  0.800460  0.500053  0.156125  1
  O  O644  1  0.800371  0.500021  0.217036  1
  O  O645  1  0.886994  0.500046  0.132807  1
  O  O646  1  0.612992  0.499986  0.267557  1
  O  O647  1  -0.000000  0.387024  0.240347  1
  O  O648  1  0.500037  0.386990  0.267560  1
  O  O649  1  -0.000000  0.613054  0.132814  1
  O  O650  1  0.650384  0.730813  0.070667  1
  O  O651  1  0.650356  0.769278  0.205409  1
  O  O652  1  0.569899  0.849587  0.248767  1
  O  O653  1  0.730742  0.930116  0.227114  1
  O  O654  1  0.650341  0.730772  0.302490  1
  O  O655  1  0.650420  0.769259  0.167748  1
  O  O656  1  0.569876  0.849633  0.124397  1
  O  O657  1  0.730772  0.930137  0.146049  1
  O  O658  1  0.569898  0.730820  0.092376  1
  O  O659  1  0.569839  0.769258  0.227110  1
  O  O660  1  0.730719  0.849612  0.205415  1
  O  O661  1  0.650392  0.930115  0.248772  1
  O  O662  1  0.930085  0.730788  0.227116  1
  O  O663  1  0.930131  0.769287  0.092369  1
  O  O664  1  0.769253  0.849622  0.070680  1
  O  O665  1  0.849606  0.930146  0.114029  1
  O  O666  1  0.849551  0.769222  0.302488  1
  O  O667  1  0.930113  0.849605  0.259136  1
  O  O668  1  0.769237  0.930096  0.280796  1
  O  O669  1  0.849620  0.730802  0.167752  1
  O  O670  1  0.849600  0.769272  0.070677  1
  O  O671  1  0.930128  0.849636  0.114023  1
  O  O672  1  0.769244  0.930130  0.092377  1
  O  O673  1  0.849559  0.730786  0.205417  1
  O  O674  1  0.930066  0.769252  0.280789  1
  O  O675  1  0.769192  0.849582  0.302500  1
  O  O676  1  0.849571  0.930126  0.259142  1
  O  O677  1  0.930140  0.730816  0.146049  1
  O  O678  1  0.569879  0.769277  0.146051  1
  O  O679  1  0.730769  0.849615  0.167748  1
  O  O680  1  0.650411  0.930137  0.124399  1
  O  O681  1  0.569833  0.730757  0.280787  1
  O  O682  1  0.711964  0.712031  0.084065  1
  O  O683  1  0.619632  0.712040  0.108966  1
  O  O684  1  0.711966  0.880399  0.243709  1
  O  O685  1  0.711921  0.788048  0.218814  1
  O  O686  1  0.619600  0.788005  0.243699  1
  O  O687  1  0.711911  0.712008  0.289087  1
  O  O688  1  0.619547  0.711973  0.264194  1
  O  O689  1  0.711994  0.880408  0.129461  1
  O  O690  1  0.712000  0.788038  0.154349  1
  O  O691  1  0.619616  0.788068  0.129463  1
  O  O692  1  0.880329  0.712021  0.243703  1
  O  O693  1  0.787976  0.712012  0.218815  1
  O  O694  1  0.788032  0.880411  0.108968  1
  O  O695  1  0.880406  0.788068  0.108962  1
  O  O696  1  0.788024  0.788053  0.084079  1
  O  O697  1  0.787998  0.880381  0.264201  1
  O  O698  1  0.787954  0.788035  0.289094  1
  O  O699  1  0.880354  0.788061  0.264195  1
  O  O700  1  0.788064  0.712026  0.154345  1
  O  O701  1  0.880393  0.712037  0.129457  1
  O  O702  1  0.708572  0.902862  0.108050  1
  O  O703  1  0.708595  0.708589  0.160395  1
  O  O704  1  0.902867  0.708622  0.108045  1
  O  O705  1  0.708492  0.791453  0.295143  1
  O  O706  1  0.902813  0.791469  0.242783  1
  O  O707  1  0.708547  0.902842  0.265122  1
  O  O708  1  0.708526  0.708609  0.212752  1
  O  O709  1  0.902762  0.708596  0.265116  1
  O  O710  1  0.708564  0.791479  0.078020  1
  O  O711  1  0.902865  0.791484  0.130376  1
  O  O712  1  0.791415  0.902855  0.242789  1
  O  O713  1  0.597088  0.708568  0.242779  1
  O  O714  1  0.791379  0.708575  0.295130  1
  O  O715  1  0.597175  0.791488  0.108048  1
  O  O716  1  0.791458  0.791468  0.160403  1
  O  O717  1  0.791388  0.791458  0.212763  1
  O  O718  1  0.597138  0.791429  0.265113  1
  O  O719  1  0.791454  0.902863  0.130380  1
  O  O720  1  0.791434  0.708615  0.078020  1
  O  O721  1  0.597175  0.708615  0.130380  1
  O  O722  1  0.648370  0.758344  0.091819  1
  O  O723  1  0.648305  0.741700  0.226553  1
  O  O724  1  0.648374  0.851616  0.256183  1
  O  O725  1  0.758255  0.851643  0.226565  1
  O  O726  1  0.648305  0.758292  0.281339  1
  O  O727  1  0.648376  0.741744  0.146602  1
  O  O728  1  0.648373  0.851666  0.116985  1
  O  O729  1  0.758308  0.851655  0.146602  1
  O  O730  1  0.851598  0.758331  0.226562  1
  O  O731  1  0.851647  0.741747  0.091823  1
  O  O732  1  0.741711  0.851656  0.091827  1
  O  O733  1  0.851652  0.851669  0.121444  1
  O  O734  1  0.851563  0.741762  0.281334  1
  O  O735  1  0.851621  0.851669  0.251717  1
  O  O736  1  0.741666  0.851644  0.281348  1
  O  O737  1  0.851670  0.758351  0.146603  1
  O  O738  1  0.650053  0.944436  0.227026  1
  O  O739  1  0.650026  0.849963  0.201552  1
  O  O740  1  0.555541  0.849949  0.227025  1
  O  O741  1  0.650069  0.944458  0.146140  1
  O  O742  1  0.650076  0.849949  0.171601  1
  O  O743  1  0.555543  0.849968  0.146140  1
  O  O744  1  0.849935  0.944468  0.092286  1
  O  O745  1  0.944451  0.849975  0.092277  1
  O  O746  1  0.849945  0.849951  0.066815  1
  O  O747  1  0.849937  0.944398  0.280887  1
  O  O748  1  0.849894  0.849891  0.306355  1
  O  O749  1  0.944423  0.849930  0.280882  1
  O  O750  1  0.579115  0.688736  0.073167  1
  O  O751  1  0.579074  0.811343  0.207902  1
  O  O752  1  0.579113  0.920882  0.237435  1
  O  O753  1  0.688661  0.920889  0.207904  1
  O  O754  1  0.579077  0.688688  0.299998  1
  O  O755  1  0.579131  0.811345  0.165253  1
  O  O756  1  0.579108  0.920910  0.135733  1
  O  O757  1  0.688696  0.920897  0.165255  1
  O  O758  1  0.920842  0.688710  0.207912  1
  O  O759  1  0.920894  0.811334  0.073158  1
  O  O760  1  0.811320  0.920900  0.073168  1
  O  O761  1  0.920891  0.920916  0.102689  1
  O  O762  1  0.920840  0.811298  0.300000  1
  O  O763  1  0.920878  0.920871  0.270473  1
  O  O764  1  0.811308  0.920830  0.300005  1
  O  O765  1  0.920906  0.688757  0.165263  1
  O  O766  1  0.612958  0.699560  0.321325  1
  O  O767  1  0.612977  0.800497  0.186576  1
  O  O768  1  -0.000000  0.699533  0.217043  1
  O  O769  1  0.699523  0.887015  0.186579  1
  O  O770  1  0.800454  0.886990  0.051844  1
  O  O771  1  0.886970  0.800439  0.321325  1
  O  O772  1  0.886993  0.699570  0.186588  1
  O  O773  1  -0.000000  0.800451  0.290869  1
  O  O774  1  0.886999  0.000000  0.267562  1
  O  O775  1  0.800481  -0.000000  0.290880  1
  O  O776  1  0.150455  0.230778  0.340160  1
  O  O777  1  0.069893  0.150410  0.383504  1
  O  O778  1  0.230790  0.069888  0.361856  1
  O  O779  1  0.150414  0.269273  0.474914  1
  O  O780  1  0.150411  0.230783  0.571973  1
  O  O781  1  0.069892  0.150427  0.528633  1
  O  O782  1  0.230791  0.069907  0.550285  1
  O  O783  1  0.150410  0.269229  0.437236  1
  O  O784  1  0.069903  0.230759  0.361849  1
  O  O785  1  0.230819  0.150444  0.340163  1
  O  O786  1  0.150414  0.069895  0.383502  1
  O  O787  1  0.069871  0.269247  0.496602  1
  O  O788  1  0.430115  0.230798  0.496602  1
  O  O789  1  0.269203  0.150427  0.474907  1
  O  O790  1  0.349586  0.069951  0.518258  1
  O  O791  1  0.430124  0.269287  0.361872  1
  O  O792  1  0.349600  0.269269  0.571979  1
  O  O793  1  0.349591  0.230767  0.437244  1
  O  O794  1  0.430089  0.150454  0.393895  1
  O  O795  1  0.269202  0.069908  0.415535  1
  O  O796  1  0.349638  0.269272  0.340168  1
  O  O797  1  0.349575  0.230743  0.474912  1
  O  O798  1  0.430110  0.150449  0.518261  1
  O  O799  1  0.269217  0.069894  0.496610  1
  O  O800  1  0.430135  0.269266  0.550284  1
  O  O801  1  0.430153  0.230798  0.415550  1
  O  O802  1  0.269243  0.150437  0.437232  1
  O  O803  1  0.349589  0.069943  0.393887  1
  O  O804  1  0.069896  0.269234  0.415534  1
  O  O805  1  0.069845  0.230802  0.550285  1
  O  O806  1  0.230775  0.150470  0.571976  1
  O  O807  1  0.150397  0.069915  0.528642  1
  O  O808  1  0.211991  0.119617  0.378444  1
  O  O809  1  0.212026  0.212004  0.353565  1
  O  O810  1  0.119616  0.211978  0.378445  1
  O  O811  1  0.211991  0.288055  0.488312  1
  O  O812  1  0.119567  0.288045  0.513199  1
  O  O813  1  0.211976  0.119636  0.533696  1
  O  O814  1  0.211971  0.212020  0.558568  1
  O  O815  1  0.119579  0.212023  0.533691  1
  O  O816  1  0.211974  0.288026  0.423832  1
  O  O817  1  0.119619  0.288004  0.398939  1
  O  O818  1  0.287990  0.119653  0.513196  1
  O  O819  1  0.380399  0.212026  0.513198  1
  O  O820  1  0.287998  0.211966  0.488315  1
  O  O821  1  0.380415  0.288083  0.378468  1
  O  O822  1  0.288049  0.288054  0.353559  1
  O  O823  1  0.288022  0.288058  0.558575  1
  O  O824  1  0.380418  0.288063  0.533688  1
  O  O825  1  0.287997  0.119642  0.398944  1
  O  O826  1  0.288047  0.212003  0.423831  1
  O  O827  1  0.380398  0.212044  0.398960  1
  O  O828  1  0.208580  0.208582  0.429883  1
  O  O829  1  0.402831  0.208624  0.377547  1
  O  O830  1  0.208539  0.097166  0.512286  1
  O  O831  1  0.208552  0.291465  0.564621  1
  O  O832  1  0.402860  0.291474  0.512274  1
  O  O833  1  0.208545  0.208592  0.482263  1
  O  O834  1  0.402845  0.208604  0.534610  1
  O  O835  1  0.208547  0.097179  0.399859  1
  O  O836  1  0.208592  0.291455  0.347510  1
  O  O837  1  0.402892  0.291491  0.399879  1
  O  O838  1  0.097153  0.208579  0.512278  1
  O  O839  1  0.291437  0.208615  0.564624  1
  O  O840  1  0.291455  0.097190  0.377533  1
  O  O841  1  0.097157  0.291420  0.377526  1
  O  O842  1  0.291432  0.291445  0.429890  1
  O  O843  1  0.291441  0.097206  0.534608  1
  O  O844  1  0.291434  0.291420  0.482255  1
  O  O845  1  0.097110  0.291477  0.534609  1
  O  O846  1  0.291491  0.208593  0.347519  1
  O  O847  1  0.097166  0.208556  0.399860  1
  O  O848  1  0.148390  0.258295  0.361308  1
  O  O849  1  0.148370  0.148372  0.390921  1
  O  O850  1  0.258324  0.148376  0.361310  1
  O  O851  1  0.148367  0.241757  0.496063  1
  O  O852  1  0.148328  0.258334  0.550827  1
  O  O853  1  0.148366  0.148399  0.521220  1
  O  O854  1  0.258298  0.148402  0.550830  1
  O  O855  1  0.148369  0.241705  0.416084  1
  O  O856  1  0.351622  0.258298  0.496058  1
  O  O857  1  0.241654  0.148355  0.496055  1
  O  O858  1  0.351615  0.148431  0.525672  1
  O  O859  1  0.351645  0.241785  0.361324  1
  O  O860  1  0.351643  0.241766  0.550828  1
  O  O861  1  0.351681  0.258352  0.416102  1
  O  O862  1  0.351609  0.148440  0.386478  1
  O  O863  1  0.241704  0.148394  0.416083  1
  O  O864  1  0.150092  0.055577  0.361758  1
  O  O865  1  0.150130  0.150099  0.336299  1
  O  O866  1  0.055582  0.150075  0.361758  1
  O  O867  1  0.150098  0.055588  0.550386  1
  O  O868  1  0.150091  0.150093  0.575836  1
  O  O869  1  0.055551  0.150115  0.550378  1
  O  O870  1  0.349919  0.055618  0.496515  1
  O  O871  1  0.444444  0.150114  0.496517  1
  O  O872  1  0.349904  0.150071  0.471049  1
  O  O873  1  0.349888  0.055594  0.415631  1
  O  O874  1  0.349928  0.150075  0.441097  1
  O  O875  1  0.444439  0.150105  0.415637  1
  O  O876  1  0.079168  0.188698  0.342642  1
  O  O877  1  0.079135  0.079132  0.372164  1
  O  O878  1  0.188747  0.079149  0.342645  1
  O  O879  1  0.079128  0.311331  0.477395  1
  O  O880  1  0.079124  0.188723  0.569493  1
  O  O881  1  0.079138  0.079166  0.539983  1
  O  O882  1  0.188754  0.079150  0.569497  1
  O  O883  1  0.079133  0.311296  0.434746  1
  O  O884  1  0.420868  0.188694  0.477398  1
  O  O885  1  0.311267  0.079150  0.477396  1
  O  O886  1  0.420869  0.079176  0.506922  1
  O  O887  1  0.420904  0.311345  0.342656  1
  O  O888  1  0.420893  0.311325  0.569494  1
  O  O889  1  0.420884  0.188711  0.434756  1
  O  O890  1  0.420849  0.079170  0.405231  1
  O  O891  1  0.311269  0.079142  0.434747  1
  O  O892  1  -0.000000  0.113032  0.375090  1
  O  O893  1  0.113060  0.199572  0.590811  1
  O  O894  1  0.113026  0.300452  0.456074  1
  O  O895  1  0.199579  -0.000000  0.560365  1
  O  O896  1  0.199553  -0.000000  0.351775  1
  O  O897  1  0.113022  0.000000  0.375091  1
  O  O898  1  0.113001  -0.000000  0.537058  1
  O  O899  1  0.199605  0.113068  0.590814  1
  O  O900  1  0.300426  0.113036  0.456071  1
  O  O901  1  0.387009  0.300478  0.321329  1
  O  O902  1  0.386976  0.199539  0.456076  1
  O  O903  1  0.386980  0.000000  0.509849  1
  O  O904  1  0.300479  -0.000000  0.486528  1
  O  O905  1  0.300409  0.000000  0.425617  1
  O  O906  1  0.386957  0.000000  0.402303  1
  O  O907  1  -0.000000  0.113031  0.537043  1
  O  O908  1  -0.000000  0.300476  0.425612  1
  O  O909  1  0.499985  0.113047  0.402301  1
  O  O910  1  -0.000000  0.199546  0.351767  1
  O  O911  1  0.069808  0.650386  0.518269  1
  O  O912  1  0.230718  0.569923  0.496621  1
  O  O913  1  0.069852  0.349628  0.518255  1
  O  O914  1  0.230783  0.430127  0.496603  1
  O  O915  1  0.069897  0.650429  0.393895  1
  O  O916  1  0.230734  0.569862  0.415541  1
  O  O917  1  0.069882  0.349565  0.393878  1
  O  O918  1  0.230733  0.430087  0.415531  1
  O  O919  1  0.230765  0.650423  0.474913  1
  O  O920  1  0.150360  0.569876  0.518267  1
  O  O921  1  0.230780  0.349596  0.474901  1
  O  O922  1  0.150411  0.430094  0.518247  1
  O  O923  1  0.269244  0.650434  0.340174  1
  O  O924  1  0.349599  0.569911  0.383522  1
  O  O925  1  0.269268  0.349616  0.340156  1
  O  O926  1  0.349603  0.430148  0.383517  1
  O  O927  1  0.430150  0.349620  0.528630  1
  O  O928  1  0.269236  0.430121  0.550273  1
  O  O929  1  0.430041  0.650437  0.528635  1
  O  O930  1  0.269190  0.569885  0.550293  1
  O  O931  1  0.430155  0.349642  0.383524  1
  O  O932  1  0.269275  0.430114  0.361862  1
  O  O933  1  0.430093  0.650434  0.383524  1
  O  O934  1  0.269236  0.569893  0.361869  1
  O  O935  1  0.269234  0.349604  0.571977  1
  O  O936  1  0.349616  0.430125  0.528629  1
  O  O937  1  0.269211  0.650404  0.571991  1
  O  O938  1  0.349535  0.569906  0.528635  1
  O  O939  1  0.230755  0.349596  0.437232  1
  O  O940  1  0.150413  0.430092  0.393870  1
  O  O941  1  0.230759  0.650337  0.437249  1
  O  O942  1  0.150391  0.569890  0.393886  1
  O  O943  1  0.211907  0.619645  0.513212  1
  O  O944  1  0.211997  0.380373  0.513189  1
  O  O945  1  0.211972  0.619608  0.398955  1
  O  O946  1  0.211977  0.380357  0.398937  1
  O  O947  1  0.288015  0.619618  0.378464  1
  O  O948  1  0.288062  0.380387  0.378454  1
  O  O949  1  0.288034  0.380395  0.533683  1
  O  O950  1  0.287961  0.619623  0.533702  1
  O  O951  1  0.208588  0.402818  0.377527  1
  O  O952  1  0.208561  0.597162  0.377541  1
  O  O953  1  0.208567  0.402837  0.534598  1
  O  O954  1  0.208504  0.597154  0.534622  1
  O  O955  1  0.291461  0.402860  0.512274  1
  O  O956  1  0.291371  0.597200  0.512290  1
  O  O957  1  0.291429  0.597150  0.399874  1
  O  O958  1  0.291429  0.402855  0.399864  1
  O  O959  1  0.148279  0.648338  0.525694  1
  O  O960  1  0.258239  0.648406  0.496069  1
  O  O961  1  0.148353  0.351638  0.525669  1
  O  O962  1  0.258338  0.351662  0.496048  1
  O  O963  1  0.148370  0.648372  0.386474  1
  O  O964  1  0.258294  0.648326  0.416102  1
  O  O965  1  0.148367  0.351611  0.386456  1
  O  O966  1  0.258290  0.351623  0.416083  1
  O  O967  1  0.241715  0.648374  0.361323  1
  O  O968  1  0.351615  0.648385  0.390944  1
  O  O969  1  0.241752  0.351645  0.361307  1
  O  O970  1  0.351680  0.351689  0.390947  1
  O  O971  1  0.351669  0.351664  0.521207  1
  O  O972  1  0.241708  0.351652  0.550824  1
  O  O973  1  0.351562  0.648403  0.521221  1
  O  O974  1  0.241663  0.648358  0.550844  1
  O  O975  1  0.150035  0.555575  0.496522  1
  O  O976  1  0.150081  0.650068  0.471058  1
  O  O977  1  0.055516  0.650040  0.496524  1
  O  O978  1  0.150083  0.444432  0.496505  1
  O  O979  1  0.150085  0.349953  0.471046  1
  O  O980  1  0.055539  0.349934  0.496510  1
  O  O981  1  0.150037  0.555543  0.415628  1
  O  O982  1  0.150064  0.650030  0.441107  1
  O  O983  1  0.055580  0.650075  0.415638  1
  O  O984  1  0.150048  0.444408  0.415615  1
  O  O985  1  0.150068  0.349909  0.441098  1
  O  O986  1  0.055584  0.349922  0.415624  1
  O  O987  1  0.349925  0.555594  0.361776  1
  O  O988  1  0.444431  0.650132  0.361780  1
  O  O989  1  0.349931  0.650093  0.336314  1
  O  O990  1  0.349959  0.444454  0.361770  1
  O  O991  1  0.444456  0.349966  0.361777  1
  O  O992  1  0.349960  0.349957  0.336300  1
  O  O993  1  0.349932  0.444437  0.550372  1
  O  O994  1  0.349937  0.349940  0.575838  1
  O  O995  1  0.444467  0.349945  0.550377  1
  O  O996  1  0.349881  0.555572  0.550379  1
  O  O997  1  0.349905  0.650078  0.575851  1
  O  O998  1  0.444372  0.650090  0.550379  1
  O  O999  1  0.079068  0.579102  0.506933  1
  O  O1000  1  0.188692  0.579139  0.477407  1
  O  O1001  1  0.079119  0.420875  0.506909  1
  O  O1002  1  0.188738  0.420894  0.477390  1
  O  O1003  1  0.079104  0.579122  0.405221  1
  O  O1004  1  0.188657  0.579080  0.434752  1
  O  O1005  1  0.079123  0.420857  0.405205  1
  O  O1006  1  0.188650  0.420848  0.434739  1
  O  O1007  1  0.311301  0.579148  0.342659  1
  O  O1008  1  0.420869  0.579172  0.372180  1
  O  O1009  1  0.311335  0.420894  0.342649  1
  O  O1010  1  0.420898  0.420911  0.372183  1
  O  O1011  1  0.420900  0.420891  0.539969  1
  O  O1012  1  0.311301  0.420869  0.569485  1
  O  O1013  1  0.420809  0.579152  0.539971  1
  O  O1014  1  0.311281  0.579126  0.569501  1
  O  O1015  1  0.199553  0.500022  0.486534  1
  O  O1016  1  -0.000000  0.386996  0.402292  1
  O  O1017  1  0.199505  0.499969  0.425610  1
  O  O1018  1  0.112999  0.499984  0.509844  1
  O  O1019  1  0.199531  0.612970  0.456081  1
  O  O1020  1  0.199549  0.386993  0.456067  1
  O  O1021  1  0.387003  0.500034  0.375104  1
  O  O1022  1  0.300446  0.613029  0.321338  1
  O  O1023  1  0.300476  0.387005  0.590811  1
  O  O1024  1  0.300435  0.499995  0.560362  1
  O  O1025  1  0.300470  0.500012  0.351786  1
  O  O1026  1  0.386973  0.500016  0.537045  1
  O  O1027  1  0.112997  0.499988  0.402285  1
  O  O1028  1  0.499930  0.613018  0.537042  1
  O  O1029  1  0.499995  0.613070  0.375110  1
  O  O1030  1  0.150382  0.730761  0.474918  1
  O  O1031  1  0.150416  0.769230  0.340169  1
  O  O1032  1  0.069898  0.849592  0.383527  1
  O  O1033  1  0.230767  0.930127  0.361860  1
  O  O1034  1  0.150434  0.730722  0.437254  1
  O  O1035  1  0.150378  0.769237  0.571981  1
  O  O1036  1  0.069898  0.849604  0.528630  1
  O  O1037  1  0.230757  0.930105  0.550285  1
  O  O1038  1  0.069861  0.730732  0.496613  1
  O  O1039  1  0.069895  0.769247  0.361870  1
  O  O1040  1  0.230768  0.849581  0.340166  1
  O  O1041  1  0.150419  0.930129  0.383514  1
  O  O1042  1  0.430109  0.730815  0.361877  1
  O  O1043  1  0.430077  0.769286  0.496615  1
  O  O1044  1  0.269176  0.849621  0.474915  1
  O  O1045  1  0.349582  0.930164  0.518264  1
  O  O1046  1  0.349577  0.769227  0.437257  1
  O  O1047  1  0.430060  0.849606  0.393906  1
  O  O1048  1  0.269202  0.930104  0.415548  1
  O  O1049  1  0.349551  0.730765  0.571994  1
  O  O1050  1  0.349543  0.769285  0.474922  1
  O  O1051  1  0.430095  0.849625  0.518274  1
  O  O1052  1  0.269247  0.930168  0.496608  1
  O  O1053  1  0.349586  0.730780  0.340176  1
  O  O1054  1  0.430111  0.769255  0.415553  1
  O  O1055  1  0.269237  0.849576  0.437236  1
  O  O1056  1  0.349570  0.930137  0.393892  1
  O  O1057  1  0.430062  0.730780  0.550290  1
  O  O1058  1  0.069872  0.769258  0.550281  1
  O  O1059  1  0.230729  0.849583  0.571976  1
  O  O1060  1  0.150389  0.930150  0.528634  1
  O  O1061  1  0.069936  0.730764  0.415550  1
  O  O1062  1  0.211960  0.712000  0.488314  1
  O  O1063  1  0.119562  0.711945  0.513207  1
  O  O1064  1  0.211985  0.880406  0.378457  1
  O  O1065  1  0.211973  0.788032  0.353574  1
  O  O1066  1  0.119620  0.788023  0.378466  1
  O  O1067  1  0.212002  0.711927  0.423855  1
  O  O1068  1  0.119650  0.711985  0.398957  1
  O  O1069  1  0.211951  0.880407  0.533687  1
  O  O1070  1  0.211941  0.788006  0.558577  1
  O  O1071  1  0.119622  0.788036  0.533689  1
  O  O1072  1  0.380369  0.712007  0.378467  1
  O  O1073  1  0.288027  0.711993  0.353580  1
  O  O1074  1  0.288008  0.880443  0.513199  1
  O  O1075  1  0.380365  0.788060  0.513210  1
  O  O1076  1  0.287966  0.788068  0.488322  1
  O  O1077  1  0.287995  0.880410  0.398953  1
  O  O1078  1  0.288039  0.787971  0.423844  1
  O  O1079  1  0.380343  0.788015  0.398971  1
  O  O1080  1  0.287986  0.711968  0.558590  1
  O  O1081  1  0.380326  0.712016  0.533697  1
  O  O1082  1  0.208551  0.902918  0.512281  1
  O  O1083  1  0.208528  0.708559  0.564638  1
  O  O1084  1  0.402787  0.708598  0.512287  1
  O  O1085  1  0.208599  0.791395  0.429898  1
  O  O1086  1  0.402810  0.791458  0.377557  1
  O  O1087  1  0.208548  0.902840  0.399873  1
  O  O1088  1  0.208570  0.708574  0.347526  1
  O  O1089  1  0.402839  0.708570  0.399879  1
  O  O1090  1  0.208511  0.791468  0.482272  1
  O  O1091  1  0.402788  0.791473  0.534624  1
  O  O1092  1  0.291433  0.902858  0.377538  1
  O  O1093  1  0.097164  0.708578  0.377546  1
  O  O1094  1  0.291444  0.708512  0.429908  1
  O  O1095  1  0.097144  0.791427  0.512282  1
  O  O1096  1  0.291388  0.791430  0.564635  1
  O  O1097  1  0.291432  0.791442  0.347524  1
  O  O1098  1  0.097213  0.791446  0.399882  1
  O  O1099  1  0.291414  0.902862  0.534612  1
  O  O1100  1  0.291411  0.708603  0.482271  1
  O  O1101  1  0.097100  0.708578  0.534614  1
  O  O1102  1  0.148342  0.758259  0.496069  1
  O  O1103  1  0.148369  0.741718  0.361323  1
  O  O1104  1  0.148379  0.851644  0.390936  1
  O  O1105  1  0.258288  0.851651  0.361317  1
  O  O1106  1  0.148416  0.758257  0.416103  1
  O  O1107  1  0.148335  0.741698  0.550833  1
  O  O1108  1  0.148352  0.851671  0.521203  1
  O  O1109  1  0.258253  0.851614  0.550825  1
  O  O1110  1  0.351632  0.758325  0.361326  1
  O  O1111  1  0.351590  0.741769  0.496070  1
  O  O1112  1  0.241668  0.851698  0.496063  1
  O  O1113  1  0.351609  0.851677  0.525681  1
  O  O1114  1  0.351661  0.741647  0.416114  1
  O  O1115  1  0.351591  0.851636  0.386486  1
  O  O1116  1  0.241718  0.851592  0.416089  1
  O  O1117  1  0.351588  0.758298  0.550844  1
  O  O1118  1  0.150082  0.944430  0.361766  1
  O  O1119  1  0.150086  0.849912  0.336302  1
  O  O1120  1  0.055596  0.849928  0.361779  1
  O  O1121  1  0.150078  0.944452  0.550380  1
  O  O1122  1  0.150047  0.849926  0.575842  1
  O  O1123  1  0.055559  0.849934  0.550376  1
  O  O1124  1  0.349949  0.944459  0.496517  1
  O  O1125  1  0.444405  0.849976  0.496530  1
  O  O1126  1  0.349862  0.849958  0.471052  1
  O  O1127  1  0.349891  0.944463  0.415635  1
  O  O1128  1  0.349906  0.849933  0.441105  1
  O  O1129  1  0.444407  0.849962  0.415645  1
  O  O1130  1  0.079120  0.688649  0.477408  1
  O  O1131  1  0.079152  0.811312  0.342658  1
  O  O1132  1  0.079146  0.920869  0.372182  1
  O  O1133  1  0.188704  0.920864  0.342649  1
  O  O1134  1  0.079139  0.688684  0.434759  1
  O  O1135  1  0.079099  0.811303  0.569495  1
  O  O1136  1  0.079130  0.920883  0.539974  1
  O  O1137  1  0.188691  0.920876  0.569495  1
  O  O1138  1  0.420871  0.688746  0.342663  1
  O  O1139  1  0.420810  0.811380  0.477411  1
  O  O1140  1  0.311282  0.920898  0.477397  1
  O  O1141  1  0.420883  0.920924  0.506939  1
  O  O1142  1  0.420854  0.811315  0.434762  1
  O  O1143  1  0.420842  0.920907  0.405233  1
  O  O1144  1  0.311282  0.920881  0.434753  1
  O  O1145  1  0.420838  0.688713  0.569501  1
  O  O1146  1  0.113009  0.699511  0.456084  1
  O  O1147  1  0.113010  0.800442  0.321331  1
  O  O1148  1  0.499997  0.699612  0.351793  1
  O  O1149  1  0.499949  0.800508  0.486529  1
  O  O1150  1  0.199554  0.886963  0.321327  1
  O  O1151  1  0.300393  0.886989  0.456074  1
  O  O1152  1  0.499997  0.886997  0.509859  1
  O  O1153  1  0.386957  0.800483  0.456086  1
  O  O1154  1  0.386970  0.699561  0.321338  1
  O  O1155  1  0.499956  0.699548  0.560360  1
  O  O1156  1  -0.000000  0.699583  0.425618  1
  O  O1157  1  -0.000000  0.887009  0.375104  1
  O  O1158  1  0.499966  0.887016  0.402302  1
  O  O1159  1  -0.000000  0.886992  0.537041  1
  O  O1160  1  -0.000000  0.800490  0.351783  1
  O  O1161  1  0.499989  0.800496  0.425625  1
  O  O1162  1  0.650446  0.230737  0.474917  1
  O  O1163  1  0.569910  0.150403  0.518265  1
  O  O1164  1  0.730788  0.069862  0.496609  1
  O  O1165  1  0.650451  0.269276  0.340174  1
  O  O1166  1  0.650430  0.230778  0.437241  1
  O  O1167  1  0.569878  0.150440  0.393886  1
  O  O1168  1  0.730768  0.069916  0.415540  1
  O  O1169  1  0.650440  0.269239  0.571988  1
  O  O1170  1  0.569912  0.230768  0.496611  1
  O  O1171  1  0.730796  0.150399  0.474910  1
  O  O1172  1  0.650412  0.069883  0.518255  1
  O  O1173  1  0.569919  0.269284  0.361870  1
  O  O1174  1  0.930157  0.230800  0.361853  1
  O  O1175  1  0.769246  0.150444  0.340175  1
  O  O1176  1  0.849620  0.069933  0.383524  1
  O  O1177  1  0.930103  0.269254  0.496605  1
  O  O1178  1  0.849604  0.269289  0.437230  1
  O  O1179  1  0.849552  0.230709  0.571973  1
  O  O1180  1  0.930107  0.150410  0.528625  1
  O  O1181  1  0.769243  0.069825  0.550287  1
  O  O1182  1  0.849593  0.269249  0.474898  1
  O  O1183  1  0.849596  0.230789  0.340156  1
  O  O1184  1  0.930135  0.150459  0.383507  1
  O  O1185  1  0.769242  0.069933  0.361874  1
  O  O1186  1  0.930119  0.269285  0.415533  1
  O  O1187  1  0.930086  0.230768  0.550282  1
  O  O1188  1  0.769198  0.150375  0.571983  1
  O  O1189  1  0.849613  0.069880  0.528640  1
  O  O1190  1  0.569916  0.269227  0.550288  1
  O  O1191  1  0.569906  0.230781  0.415544  1
  O  O1192  1  0.730792  0.150431  0.437243  1
  O  O1193  1  0.650419  0.069929  0.393889  1
  O  O1194  1  0.712014  0.119591  0.513198  1
  O  O1195  1  0.712025  0.211943  0.488318  1
  O  O1196  1  0.619638  0.211962  0.513205  1
  O  O1197  1  0.712020  0.288069  0.353577  1
  O  O1198  1  0.619645  0.288067  0.378464  1
  O  O1199  1  0.711994  0.119660  0.398954  1
  O  O1200  1  0.712003  0.211995  0.423841  1
  O  O1201  1  0.619612  0.212007  0.398948  1
  O  O1202  1  0.711995  0.288027  0.558582  1
  O  O1203  1  0.619648  0.288007  0.533694  1
  O  O1204  1  0.788050  0.119657  0.378466  1
  O  O1205  1  0.880418  0.212031  0.378446  1
  O  O1206  1  0.788068  0.212034  0.353569  1
  O  O1207  1  0.880368  0.288032  0.513197  1
  O  O1208  1  0.788038  0.288013  0.488305  1
  O  O1209  1  0.788027  0.288052  0.423830  1
  O  O1210  1  0.880387  0.288068  0.398940  1
  O  O1211  1  0.788021  0.119576  0.533699  1
  O  O1212  1  0.787990  0.211924  0.558572  1
  O  O1213  1  0.880383  0.211985  0.533686  1
  O  O1214  1  0.708559  0.208546  0.564631  1
  O  O1215  1  0.902821  0.208566  0.512275  1
  O  O1216  1  0.708582  0.097218  0.377544  1
  O  O1217  1  0.708574  0.291455  0.429885  1
  O  O1218  1  0.902866  0.291488  0.377528  1
  O  O1219  1  0.708605  0.208613  0.347527  1
  O  O1220  1  0.902868  0.208623  0.399858  1
  O  O1221  1  0.708574  0.097097  0.534608  1
  O  O1222  1  0.708584  0.291408  0.482266  1
  O  O1223  1  0.902824  0.291447  0.534608  1
  O  O1224  1  0.597175  0.208606  0.377538  1
  O  O1225  1  0.791463  0.208602  0.429888  1
  O  O1226  1  0.791463  0.097122  0.512286  1
  O  O1227  1  0.597205  0.291429  0.512283  1
  O  O1228  1  0.791431  0.291397  0.564628  1
  O  O1229  1  0.791467  0.097206  0.399875  1
  O  O1230  1  0.791469  0.291493  0.347518  1
  O  O1231  1  0.597184  0.291474  0.399873  1
  O  O1232  1  0.791465  0.208550  0.482255  1
  O  O1233  1  0.597197  0.208545  0.534617  1
  O  O1234  1  0.648409  0.258252  0.496067  1
  O  O1235  1  0.648401  0.148347  0.525679  1
  O  O1236  1  0.758355  0.148325  0.496057  1
  O  O1237  1  0.648403  0.241760  0.361323  1
  O  O1238  1  0.648389  0.258291  0.416089  1
  O  O1239  1  0.648369  0.148404  0.386473  1
  O  O1240  1  0.758316  0.148390  0.416096  1
  O  O1241  1  0.648390  0.241713  0.550837  1
  O  O1242  1  0.851694  0.258347  0.361303  1
  O  O1243  1  0.741761  0.148432  0.361328  1
  O  O1244  1  0.851666  0.148422  0.390935  1
  O  O1245  1  0.851643  0.241717  0.496050  1
  O  O1246  1  0.851645  0.241748  0.416082  1
  O  O1247  1  0.851601  0.258261  0.550824  1
  O  O1248  1  0.851623  0.148361  0.521217  1
  O  O1249  1  0.741669  0.148293  0.550837  1
  O  O1250  1  0.650080  0.055580  0.496512  1
  O  O1251  1  0.650097  0.150066  0.471051  1
  O  O1252  1  0.555568  0.150095  0.496519  1
  O  O1253  1  0.650067  0.055599  0.415631  1
  O  O1254  1  0.650101  0.150093  0.441102  1
  O  O1255  1  0.555579  0.150090  0.415631  1
  O  O1256  1  0.849921  0.055599  0.361778  1
  O  O1257  1  0.944440  0.150108  0.361761  1
  O  O1258  1  0.849919  0.150085  0.336304  1
  O  O1259  1  0.849944  0.055555  0.550386  1
  O  O1260  1  0.849882  0.150028  0.575843  1
  O  O1261  1  0.944426  0.150084  0.550369  1
  O  O1262  1  0.579150  0.188696  0.477401  1
  O  O1263  1  0.579126  0.079144  0.506919  1
  O  O1264  1  0.688727  0.079127  0.477397  1
  O  O1265  1  0.579156  0.311331  0.342659  1
  O  O1266  1  0.579159  0.188698  0.434752  1
  O  O1267  1  0.579118  0.079154  0.405220  1
  O  O1268  1  0.688706  0.079152  0.434749  1
  O  O1269  1  0.579162  0.311298  0.569500  1
  O  O1270  1  0.920872  0.188719  0.342644  1
  O  O1271  1  0.811293  0.079151  0.342661  1
  O  O1272  1  0.920874  0.079172  0.372174  1
  O  O1273  1  0.920859  0.311320  0.477392  1
  O  O1274  1  0.920880  0.311357  0.434743  1
  O  O1275  1  0.920827  0.188651  0.569486  1
  O  O1276  1  0.920889  0.079130  0.539971  1
  O  O1277  1  0.811262  0.079084  0.569503  1
  O  O1278  1  0.613046  0.199557  0.456078  1
  O  O1279  1  0.613055  0.300461  0.321336  1
  O  O1280  1  0.699534  0.000000  0.486526  1
  O  O1281  1  0.886999  0.000000  0.375106  1
  O  O1282  1  0.699572  0.113018  0.456074  1
  O  O1283  1  0.500022  0.300487  0.351793  1
  O  O1284  1  0.800408  0.113015  0.321337  1
  O  O1285  1  0.886986  0.300502  0.456066  1
  O  O1286  1  0.886957  0.199526  0.590809  1
  O  O1287  1  0.699545  0.000000  0.425614  1
  O  O1288  1  0.613015  -0.000000  0.402297  1
  O  O1289  1  0.800443  -0.000000  0.351793  1
  O  O1290  1  0.500002  0.113043  0.509851  1
  O  O1291  1  0.500012  0.199574  0.486528  1
  O  O1292  1  0.613000  0.000000  0.509843  1
  O  O1293  1  -0.000000  0.300466  0.486522  1
  O  O1294  1  -0.000000  0.199557  0.560366  1
  O  O1295  1  0.500029  0.300457  0.560366  1
  O  O1296  1  0.500028  0.199551  0.425626  1
  O  O1297  1  0.569896  0.650472  0.383519  1
  O  O1298  1  0.730753  0.569951  0.361854  1
  O  O1299  1  0.569914  0.349634  0.383521  1
  O  O1300  1  0.730766  0.430178  0.361864  1
  O  O1301  1  0.569806  0.650408  0.528622  1
  O  O1302  1  0.730694  0.569908  0.550274  1
  O  O1303  1  0.569926  0.349577  0.528635  1
  O  O1304  1  0.730785  0.430125  0.550291  1
  O  O1305  1  0.730748  0.650467  0.340152  1
  O  O1306  1  0.650422  0.569956  0.383510  1
  O  O1307  1  0.730789  0.349634  0.340174  1
  O  O1308  1  0.650412  0.430182  0.383519  1
  O  O1309  1  0.769202  0.650452  0.474897  1
  O  O1310  1  0.849492  0.569935  0.518250  1
  O  O1311  1  0.769224  0.349588  0.474909  1
  O  O1312  1  0.849582  0.430143  0.518255  1
  O  O1313  1  0.930102  0.349643  0.393881  1
  O  O1314  1  0.769242  0.430156  0.415541  1
  O  O1315  1  0.930119  0.650469  0.393886  1
  O  O1316  1  0.769257  0.569946  0.415530  1
  O  O1317  1  0.930093  0.349612  0.518253  1
  O  O1318  1  0.769214  0.430109  0.496604  1
  O  O1319  1  0.930029  0.650430  0.518259  1
  O  O1320  1  0.769140  0.569926  0.496597  1
  O  O1321  1  0.769237  0.349614  0.437233  1
  O  O1322  1  0.849597  0.430155  0.393890  1
  O  O1323  1  0.769277  0.650447  0.437229  1
  O  O1324  1  0.849607  0.569937  0.393872  1
  O  O1325  1  0.730793  0.349586  0.571986  1
  O  O1326  1  0.650436  0.430111  0.528636  1
  O  O1327  1  0.730706  0.650432  0.571971  1
  O  O1328  1  0.650334  0.569885  0.528623  1
  O  O1329  1  0.711991  0.619684  0.378446  1
  O  O1330  1  0.711978  0.380455  0.378458  1
  O  O1331  1  0.711883  0.619629  0.533681  1
  O  O1332  1  0.712015  0.380397  0.533698  1
  O  O1333  1  0.787921  0.619667  0.513187  1
  O  O1334  1  0.788033  0.380402  0.513201  1
  O  O1335  1  0.788026  0.380429  0.398950  1
  O  O1336  1  0.788047  0.619665  0.398933  1
  O  O1337  1  0.708581  0.402832  0.512283  1
  O  O1338  1  0.708470  0.597191  0.512266  1
  O  O1339  1  0.708570  0.402903  0.399870  1
  O  O1340  1  0.708590  0.597226  0.399858  1
  O  O1341  1  0.791433  0.402912  0.377540  1
  O  O1342  1  0.791450  0.597226  0.377520  1
  O  O1343  1  0.791344  0.597204  0.534598  1
  O  O1344  1  0.791457  0.402867  0.534614  1
  O  O1345  1  0.648386  0.648430  0.390931  1
  O  O1346  1  0.758278  0.648426  0.361301  1
  O  O1347  1  0.648379  0.351695  0.390941  1
  O  O1348  1  0.758312  0.351695  0.361321  1
  O  O1349  1  0.648269  0.648363  0.521201  1
  O  O1350  1  0.758194  0.648398  0.550819  1
  O  O1351  1  0.648408  0.351626  0.521220  1
  O  O1352  1  0.758324  0.351646  0.550838  1
  O  O1353  1  0.741626  0.648407  0.496043  1
  O  O1354  1  0.851535  0.648421  0.525667  1
  O  O1355  1  0.741734  0.351613  0.496062  1
  O  O1356  1  0.851640  0.351661  0.525678  1
  O  O1357  1  0.851630  0.351680  0.386463  1
  O  O1358  1  0.741706  0.351671  0.416087  1
  O  O1359  1  0.851652  0.648424  0.386458  1
  O  O1360  1  0.741761  0.648428  0.416077  1
  O  O1361  1  0.650060  0.555634  0.361766  1
  O  O1362  1  0.650054  0.650123  0.336298  1
  O  O1363  1  0.555560  0.650135  0.361777  1
  O  O1364  1  0.650080  0.444492  0.361773  1
  O  O1365  1  0.650100  0.349954  0.336311  1
  O  O1366  1  0.555598  0.349967  0.361775  1
  O  O1367  1  0.650015  0.555570  0.550371  1
  O  O1368  1  0.650020  0.650084  0.575837  1
  O  O1369  1  0.555513  0.650067  0.550368  1
  O  O1370  1  0.650092  0.444428  0.550380  1
  O  O1371  1  0.650108  0.349926  0.575849  1
  O  O1372  1  0.555604  0.349910  0.550380  1
  O  O1373  1  0.849829  0.555598  0.496508  1
  O  O1374  1  0.944387  0.650096  0.496518  1
  O  O1375  1  0.849896  0.650095  0.471048  1
  O  O1376  1  0.849886  0.444470  0.496507  1
  O  O1377  1  0.944404  0.349944  0.496508  1
  O  O1378  1  0.849909  0.349945  0.471045  1
  O  O1379  1  0.849934  0.444480  0.415634  1
  O  O1380  1  0.849924  0.349975  0.441093  1
  O  O1381  1  0.944441  0.349965  0.415626  1
  O  O1382  1  0.849930  0.555615  0.415619  1
  O  O1383  1  0.849965  0.650112  0.441096  1
  O  O1384  1  0.944435  0.650129  0.415632  1
  O  O1385  1  0.579124  0.579193  0.372182  1
  O  O1386  1  0.688679  0.579184  0.342646  1
  O  O1387  1  0.579146  0.420921  0.372181  1
  O  O1388  1  0.688705  0.420911  0.342655  1
  O  O1389  1  0.579061  0.579117  0.539961  1
  O  O1390  1  0.688646  0.579144  0.569487  1
  O  O1391  1  0.579162  0.420851  0.539974  1
  O  O1392  1  0.688722  0.420873  0.569500  1
  O  O1393  1  0.811229  0.579153  0.477390  1
  O  O1394  1  0.920775  0.579166  0.506916  1
  O  O1395  1  0.811265  0.420889  0.477392  1
  O  O1396  1  0.920836  0.420900  0.506912  1
  O  O1397  1  0.920879  0.420917  0.405224  1
  O  O1398  1  0.811288  0.420918  0.434752  1
  O  O1399  1  0.920868  0.579185  0.405219  1
  O  O1400  1  0.811341  0.579176  0.434740  1
  O  O1401  1  0.699532  0.500057  0.351781  1
  O  O1402  1  0.500031  0.387033  0.375106  1
  O  O1403  1  -0.000000  0.612995  0.509852  1
  O  O1404  1  0.699524  0.500014  0.560362  1
  O  O1405  1  0.613014  0.500066  0.375101  1
  O  O1406  1  0.699514  0.613051  0.590809  1
  O  O1407  1  0.699583  0.386991  0.321335  1
  O  O1408  1  0.886922  0.500040  0.509839  1
  O  O1409  1  0.800458  0.613050  0.456065  1
  O  O1410  1  0.800425  0.386990  0.456071  1
  O  O1411  1  0.800460  0.500053  0.425614  1
  O  O1412  1  0.800371  0.500021  0.486524  1
  O  O1413  1  0.886994  0.500046  0.402295  1
  O  O1414  1  0.612992  0.499986  0.537045  1
  O  O1415  1  0.000000  0.387024  0.509835  1
  O  O1416  1  0.500037  0.386990  0.537048  1
  O  O1417  1  -0.000000  0.613054  0.402302  1
  O  O1418  1  0.650384  0.730813  0.340156  1
  O  O1419  1  0.650356  0.769278  0.474897  1
  O  O1420  1  0.569899  0.849587  0.518255  1
  O  O1421  1  0.730742  0.930116  0.496603  1
  O  O1422  1  0.650341  0.730772  0.571978  1
  O  O1423  1  0.650420  0.769259  0.437237  1
  O  O1424  1  0.569876  0.849633  0.393886  1
  O  O1425  1  0.730772  0.930137  0.415538  1
  O  O1426  1  0.569898  0.730820  0.361864  1
  O  O1427  1  0.569839  0.769258  0.496598  1
  O  O1428  1  0.730719  0.849612  0.474903  1
  O  O1429  1  0.650392  0.930115  0.518260  1
  O  O1430  1  0.930085  0.730788  0.496605  1
  O  O1431  1  0.930131  0.769287  0.361857  1
  O  O1432  1  0.769253  0.849622  0.340168  1
  O  O1433  1  0.849606  0.930146  0.383517  1
  O  O1434  1  0.849551  0.769222  0.571976  1
  O  O1435  1  0.930113  0.849605  0.528624  1
  O  O1436  1  0.769237  0.930096  0.550284  1
  O  O1437  1  0.849620  0.730802  0.437241  1
  O  O1438  1  0.849600  0.769272  0.340165  1
  O  O1439  1  0.930128  0.849636  0.383511  1
  O  O1440  1  0.769244  0.930130  0.361865  1
  O  O1441  1  0.849559  0.730786  0.474905  1
  O  O1442  1  0.930066  0.769252  0.550277  1
  O  O1443  1  0.769192  0.849582  0.571988  1
  O  O1444  1  0.849571  0.930126  0.528630  1
  O  O1445  1  0.930140  0.730816  0.415537  1
  O  O1446  1  0.569879  0.769277  0.415539  1
  O  O1447  1  0.730769  0.849615  0.437237  1
  O  O1448  1  0.650411  0.930137  0.393887  1
  O  O1449  1  0.569833  0.730757  0.550276  1
  O  O1450  1  0.711964  0.712031  0.353553  1
  O  O1451  1  0.619632  0.712040  0.378454  1
  O  O1452  1  0.711966  0.880399  0.513197  1
  O  O1453  1  0.711921  0.788048  0.488302  1
  O  O1454  1  0.619600  0.788005  0.513187  1
  O  O1455  1  0.711911  0.712008  0.558575  1
  O  O1456  1  0.619547  0.711973  0.533682  1
  O  O1457  1  0.711994  0.880408  0.398950  1
  O  O1458  1  0.712000  0.788038  0.423837  1
  O  O1459  1  0.619616  0.788068  0.398951  1
  O  O1460  1  0.880329  0.712021  0.513192  1
  O  O1461  1  0.787976  0.712012  0.488303  1
  O  O1462  1  0.788032  0.880411  0.378457  1
  O  O1463  1  0.880406  0.788068  0.378450  1
  O  O1464  1  0.788024  0.788053  0.353567  1
  O  O1465  1  0.787998  0.880381  0.533690  1
  O  O1466  1  0.787954  0.788035  0.558582  1
  O  O1467  1  0.880354  0.788061  0.533683  1
  O  O1468  1  0.788064  0.712026  0.423834  1
  O  O1469  1  0.880393  0.712037  0.398945  1
  O  O1470  1  0.708572  0.902862  0.377538  1
  O  O1471  1  0.708595  0.708589  0.429883  1
  O  O1472  1  0.902867  0.708622  0.377533  1
  O  O1473  1  0.708492  0.791453  0.564631  1
  O  O1474  1  0.902813  0.791469  0.512271  1
  O  O1475  1  0.708547  0.902842  0.534610  1
  O  O1476  1  0.708526  0.708609  0.482241  1
  O  O1477  1  0.902762  0.708596  0.534605  1
  O  O1478  1  0.708564  0.791479  0.347508  1
  O  O1479  1  0.902865  0.791484  0.399864  1
  O  O1480  1  0.791415  0.902855  0.512277  1
  O  O1481  1  0.597088  0.708568  0.512267  1
  O  O1482  1  0.791379  0.708575  0.564618  1
  O  O1483  1  0.597175  0.791488  0.377536  1
  O  O1484  1  0.791458  0.791468  0.429891  1
  O  O1485  1  0.791388  0.791458  0.482251  1
  O  O1486  1  0.597138  0.791429  0.534601  1
  O  O1487  1  0.791454  0.902863  0.399869  1
  O  O1488  1  0.791434  0.708615  0.347508  1
  O  O1489  1  0.597175  0.708615  0.399868  1
  O  O1490  1  0.648370  0.758344  0.361307  1
  O  O1491  1  0.648305  0.741700  0.496041  1
  O  O1492  1  0.648374  0.851616  0.525671  1
  O  O1493  1  0.758255  0.851643  0.496053  1
  O  O1494  1  0.648305  0.758292  0.550827  1
  O  O1495  1  0.648376  0.741744  0.416090  1
  O  O1496  1  0.648373  0.851666  0.386473  1
  O  O1497  1  0.758308  0.851655  0.416090  1
  O  O1498  1  0.851598  0.758331  0.496050  1
  O  O1499  1  0.851647  0.741747  0.361312  1
  O  O1500  1  0.741711  0.851656  0.361315  1
  O  O1501  1  0.851652  0.851669  0.390932  1
  O  O1502  1  0.851563  0.741762  0.550822  1
  O  O1503  1  0.851621  0.851669  0.521206  1
  O  O1504  1  0.741666  0.851644  0.550836  1
  O  O1505  1  0.851670  0.758351  0.416091  1
  O  O1506  1  0.650053  0.944436  0.496515  1
  O  O1507  1  0.650026  0.849963  0.471040  1
  O  O1508  1  0.555541  0.849949  0.496513  1
  O  O1509  1  0.650069  0.944458  0.415628  1
  O  O1510  1  0.650076  0.849949  0.441089  1
  O  O1511  1  0.555543  0.849968  0.415628  1
  O  O1512  1  0.849935  0.944468  0.361774  1
  O  O1513  1  0.944451  0.849975  0.361765  1
  O  O1514  1  0.849945  0.849951  0.336303  1
  O  O1515  1  0.849937  0.944398  0.550375  1
  O  O1516  1  0.849894  0.849891  0.575843  1
  O  O1517  1  0.944423  0.849930  0.550370  1
  O  O1518  1  0.579115  0.688736  0.342655  1
  O  O1519  1  0.579074  0.811343  0.477390  1
  O  O1520  1  0.579113  0.920882  0.506923  1
  O  O1521  1  0.688661  0.920889  0.477392  1
  O  O1522  1  0.579077  0.688688  0.569487  1
  O  O1523  1  0.579131  0.811345  0.434742  1
  O  O1524  1  0.579108  0.920910  0.405221  1
  O  O1525  1  0.688696  0.920897  0.434744  1
  O  O1526  1  0.920842  0.688710  0.477400  1
  O  O1527  1  0.920894  0.811334  0.342646  1
  O  O1528  1  0.811320  0.920900  0.342656  1
  O  O1529  1  0.920891  0.920916  0.372177  1
  O  O1530  1  0.920840  0.811298  0.569488  1
  O  O1531  1  0.920878  0.920871  0.539961  1
  O  O1532  1  0.811308  0.920830  0.569493  1
  O  O1533  1  0.920906  0.688757  0.434751  1
  O  O1534  1  0.612958  0.699560  0.590813  1
  O  O1535  1  0.612977  0.800497  0.456064  1
  O  O1536  1  -0.000000  0.699533  0.486531  1
  O  O1537  1  0.699523  0.887015  0.456067  1
  O  O1538  1  0.800454  0.886990  0.321332  1
  O  O1539  1  0.886970  0.800439  0.590814  1
  O  O1540  1  0.886993  0.699570  0.456076  1
  O  O1541  1  -0.000000  0.800451  0.560357  1
  O  O1542  1  0.886999  0.000000  0.537050  1
  O  O1543  1  0.800481  0.000000  0.560368  1
  O  O1544  1  0.150455  0.230778  0.609648  1
  O  O1545  1  0.069893  0.150410  0.652992  1
  O  O1546  1  0.230790  0.069888  0.631344  1
  O  O1547  1  0.150414  0.269273  0.744402  1
  O  O1548  1  0.150411  0.230783  0.841461  1
  O  O1549  1  0.069892  0.150427  0.798121  1
  O  O1550  1  0.230791  0.069907  0.819773  1
  O  O1551  1  0.150410  0.269229  0.706724  1
  O  O1552  1  0.069903  0.230759  0.631337  1
  O  O1553  1  0.230819  0.150444  0.609651  1
  O  O1554  1  0.150414  0.069895  0.652990  1
  O  O1555  1  0.069871  0.269247  0.766090  1
  O  O1556  1  0.430115  0.230798  0.766090  1
  O  O1557  1  0.269203  0.150427  0.744395  1
  O  O1558  1  0.349586  0.069951  0.787746  1
  O  O1559  1  0.430124  0.269287  0.631360  1
  O  O1560  1  0.349600  0.269269  0.841467  1
  O  O1561  1  0.349591  0.230767  0.706732  1
  O  O1562  1  0.430089  0.150454  0.663383  1
  O  O1563  1  0.269202  0.069908  0.685023  1
  O  O1564  1  0.349638  0.269272  0.609656  1
  O  O1565  1  0.349575  0.230743  0.744400  1
  O  O1566  1  0.430110  0.150449  0.787749  1
  O  O1567  1  0.269217  0.069894  0.766099  1
  O  O1568  1  0.430135  0.269266  0.819772  1
  O  O1569  1  0.430153  0.230798  0.685038  1
  O  O1570  1  0.269243  0.150437  0.706720  1
  O  O1571  1  0.349589  0.069943  0.663375  1
  O  O1572  1  0.069896  0.269234  0.685022  1
  O  O1573  1  0.069845  0.230802  0.819773  1
  O  O1574  1  0.230775  0.150470  0.841464  1
  O  O1575  1  0.150397  0.069915  0.798130  1
  O  O1576  1  0.211991  0.119617  0.647933  1
  O  O1577  1  0.212026  0.212004  0.623053  1
  O  O1578  1  0.119616  0.211978  0.647933  1
  O  O1579  1  0.211991  0.288055  0.757801  1
  O  O1580  1  0.119567  0.288045  0.782687  1
  O  O1581  1  0.211976  0.119636  0.803184  1
  O  O1582  1  0.211971  0.212020  0.828056  1
  O  O1583  1  0.119579  0.212023  0.803179  1
  O  O1584  1  0.211974  0.288026  0.693320  1
  O  O1585  1  0.119619  0.288004  0.668427  1
  O  O1586  1  0.287990  0.119653  0.782685  1
  O  O1587  1  0.380399  0.212026  0.782686  1
  O  O1588  1  0.287998  0.211966  0.757803  1
  O  O1589  1  0.380415  0.288083  0.647956  1
  O  O1590  1  0.288049  0.288054  0.623048  1
  O  O1591  1  0.288022  0.288058  0.828063  1
  O  O1592  1  0.380418  0.288063  0.803176  1
  O  O1593  1  0.287997  0.119642  0.668432  1
  O  O1594  1  0.288047  0.212003  0.693319  1
  O  O1595  1  0.380398  0.212044  0.668448  1
  O  O1596  1  0.208580  0.208582  0.699371  1
  O  O1597  1  0.402831  0.208624  0.647035  1
  O  O1598  1  0.208539  0.097166  0.781774  1
  O  O1599  1  0.208552  0.291465  0.834110  1
  O  O1600  1  0.402860  0.291474  0.781762  1
  O  O1601  1  0.208545  0.208592  0.751752  1
  O  O1602  1  0.402845  0.208604  0.804098  1
  O  O1603  1  0.208547  0.097179  0.669347  1
  O  O1604  1  0.208592  0.291455  0.616998  1
  O  O1605  1  0.402892  0.291491  0.669367  1
  O  O1606  1  0.097153  0.208579  0.781767  1
  O  O1607  1  0.291437  0.208615  0.834112  1
  O  O1608  1  0.291455  0.097190  0.647021  1
  O  O1609  1  0.097157  0.291420  0.647014  1
  O  O1610  1  0.291432  0.291445  0.699378  1
  O  O1611  1  0.291441  0.097206  0.804096  1
  O  O1612  1  0.291434  0.291420  0.751743  1
  O  O1613  1  0.097110  0.291477  0.804097  1
  O  O1614  1  0.291491  0.208593  0.617008  1
  O  O1615  1  0.097166  0.208556  0.669348  1
  O  O1616  1  0.148390  0.258295  0.630796  1
  O  O1617  1  0.148370  0.148372  0.660409  1
  O  O1618  1  0.258324  0.148376  0.630798  1
  O  O1619  1  0.148367  0.241757  0.765552  1
  O  O1620  1  0.148328  0.258334  0.820316  1
  O  O1621  1  0.148366  0.148399  0.790708  1
  O  O1622  1  0.258298  0.148402  0.820318  1
  O  O1623  1  0.148369  0.241705  0.685572  1
  O  O1624  1  0.351622  0.258298  0.765546  1
  O  O1625  1  0.241654  0.148355  0.765543  1
  O  O1626  1  0.351615  0.148431  0.795160  1
  O  O1627  1  0.351645  0.241785  0.630812  1
  O  O1628  1  0.351643  0.241766  0.820316  1
  O  O1629  1  0.351681  0.258352  0.685590  1
  O  O1630  1  0.351609  0.148440  0.655966  1
  O  O1631  1  0.241704  0.148394  0.685571  1
  O  O1632  1  0.150092  0.055577  0.631246  1
  O  O1633  1  0.150130  0.150099  0.605787  1
  O  O1634  1  0.055582  0.150075  0.631246  1
  O  O1635  1  0.150098  0.055588  0.819874  1
  O  O1636  1  0.150091  0.150093  0.845325  1
  O  O1637  1  0.055551  0.150115  0.819866  1
  O  O1638  1  0.349919  0.055618  0.766003  1
  O  O1639  1  0.444444  0.150114  0.766005  1
  O  O1640  1  0.349904  0.150071  0.740537  1
  O  O1641  1  0.349888  0.055594  0.685119  1
  O  O1642  1  0.349928  0.150075  0.710585  1
  O  O1643  1  0.444439  0.150105  0.685125  1
  O  O1644  1  0.079168  0.188698  0.612130  1
  O  O1645  1  0.079135  0.079132  0.641652  1
  O  O1646  1  0.188747  0.079149  0.612133  1
  O  O1647  1  0.079128  0.311331  0.746883  1
  O  O1648  1  0.079124  0.188723  0.838981  1
  O  O1649  1  0.079138  0.079166  0.809472  1
  O  O1650  1  0.188754  0.079150  0.838985  1
  O  O1651  1  0.079133  0.311296  0.704234  1
  O  O1652  1  0.420868  0.188694  0.746886  1
  O  O1653  1  0.311267  0.079150  0.746885  1
  O  O1654  1  0.420869  0.079176  0.776410  1
  O  O1655  1  0.420904  0.311345  0.612145  1
  O  O1656  1  0.420893  0.311325  0.838982  1
  O  O1657  1  0.420884  0.188711  0.704244  1
  O  O1658  1  0.420849  0.079170  0.674719  1
  O  O1659  1  0.311269  0.079142  0.704235  1
  O  O1660  1  -0.000000  0.113032  0.644578  1
  O  O1661  1  0.113060  0.199572  0.860299  1
  O  O1662  1  0.113026  0.300452  0.725562  1
  O  O1663  1  0.199579  -0.000000  0.829853  1
  O  O1664  1  0.199553  -0.000000  0.621263  1
  O  O1665  1  0.113022  -0.000000  0.644579  1
  O  O1666  1  0.113001  0.000000  0.806546  1
  O  O1667  1  0.199605  0.113068  0.860302  1
  O  O1668  1  0.300426  0.113036  0.725559  1
  O  O1669  1  0.387009  0.300478  0.590817  1
  O  O1670  1  0.386976  0.199539  0.725565  1
  O  O1671  1  0.386980  0.000000  0.779337  1
  O  O1672  1  0.300479  0.000000  0.756016  1
  O  O1673  1  0.300409  0.000000  0.695105  1
  O  O1674  1  0.386957  -0.000000  0.671791  1
  O  O1675  1  -0.000000  0.113031  0.806531  1
  O  O1676  1  -0.000000  0.300476  0.695100  1
  O  O1677  1  0.499985  0.113047  0.671789  1
  O  O1678  1  -0.000000  0.199546  0.621255  1
  O  O1679  1  0.069808  0.650386  0.787757  1
  O  O1680  1  0.230718  0.569923  0.766109  1
  O  O1681  1  0.069852  0.349628  0.787743  1
  O  O1682  1  0.230783  0.430127  0.766092  1
  O  O1683  1  0.069897  0.650429  0.663383  1
  O  O1684  1  0.230734  0.569862  0.685030  1
  O  O1685  1  0.069882  0.349565  0.663366  1
  O  O1686  1  0.230733  0.430087  0.685019  1
  O  O1687  1  0.230765  0.650423  0.744402  1
  O  O1688  1  0.150360  0.569876  0.787755  1
  O  O1689  1  0.230780  0.349596  0.744389  1
  O  O1690  1  0.150411  0.430094  0.787735  1
  O  O1691  1  0.269244  0.650434  0.609662  1
  O  O1692  1  0.349599  0.569911  0.653010  1
  O  O1693  1  0.269268  0.349616  0.609645  1
  O  O1694  1  0.349603  0.430148  0.653005  1
  O  O1695  1  0.430150  0.349620  0.798118  1
  O  O1696  1  0.269236  0.430121  0.819761  1
  O  O1697  1  0.430041  0.650437  0.798123  1
  O  O1698  1  0.269190  0.569885  0.819781  1
  O  O1699  1  0.430155  0.349642  0.653012  1
  O  O1700  1  0.269275  0.430114  0.631350  1
  O  O1701  1  0.430093  0.650434  0.653012  1
  O  O1702  1  0.269236  0.569893  0.631357  1
  O  O1703  1  0.269234  0.349604  0.841465  1
  O  O1704  1  0.349616  0.430125  0.798117  1
  O  O1705  1  0.269211  0.650404  0.841480  1
  O  O1706  1  0.349535  0.569906  0.798123  1
  O  O1707  1  0.230755  0.349596  0.706720  1
  O  O1708  1  0.150413  0.430092  0.663358  1
  O  O1709  1  0.230759  0.650337  0.706737  1
  O  O1710  1  0.150391  0.569890  0.663374  1
  O  O1711  1  0.211907  0.619645  0.782700  1
  O  O1712  1  0.211997  0.380373  0.782677  1
  O  O1713  1  0.211972  0.619608  0.668443  1
  O  O1714  1  0.211977  0.380357  0.668425  1
  O  O1715  1  0.288015  0.619618  0.647952  1
  O  O1716  1  0.288062  0.380387  0.647943  1
  O  O1717  1  0.288034  0.380395  0.803171  1
  O  O1718  1  0.287961  0.619623  0.803190  1
  O  O1719  1  0.208588  0.402818  0.647016  1
  O  O1720  1  0.208561  0.597162  0.647029  1
  O  O1721  1  0.208567  0.402837  0.804086  1
  O  O1722  1  0.208504  0.597154  0.804110  1
  O  O1723  1  0.291461  0.402860  0.781763  1
  O  O1724  1  0.291371  0.597200  0.781778  1
  O  O1725  1  0.291429  0.597150  0.669362  1
  O  O1726  1  0.291429  0.402855  0.669352  1
  O  O1727  1  0.148279  0.648338  0.795183  1
  O  O1728  1  0.258239  0.648406  0.765557  1
  O  O1729  1  0.148353  0.351638  0.795158  1
  O  O1730  1  0.258338  0.351662  0.765536  1
  O  O1731  1  0.148370  0.648372  0.655962  1
  O  O1732  1  0.258294  0.648326  0.685590  1
  O  O1733  1  0.148367  0.351611  0.655944  1
  O  O1734  1  0.258290  0.351623  0.685571  1
  O  O1735  1  0.241715  0.648374  0.630811  1
  O  O1736  1  0.351615  0.648385  0.660432  1
  O  O1737  1  0.241752  0.351645  0.630795  1
  O  O1738  1  0.351680  0.351689  0.660435  1
  O  O1739  1  0.351669  0.351664  0.790695  1
  O  O1740  1  0.241708  0.351652  0.820312  1
  O  O1741  1  0.351562  0.648403  0.790710  1
  O  O1742  1  0.241663  0.648358  0.820332  1
  O  O1743  1  0.150035  0.555575  0.766010  1
  O  O1744  1  0.150081  0.650068  0.740546  1
  O  O1745  1  0.055516  0.650040  0.766013  1
  O  O1746  1  0.150083  0.444432  0.765993  1
  O  O1747  1  0.150085  0.349953  0.740534  1
  O  O1748  1  0.055539  0.349934  0.765998  1
  O  O1749  1  0.150037  0.555543  0.685116  1
  O  O1750  1  0.150064  0.650030  0.710596  1
  O  O1751  1  0.055580  0.650075  0.685127  1
  O  O1752  1  0.150048  0.444408  0.685103  1
  O  O1753  1  0.150068  0.349909  0.710586  1
  O  O1754  1  0.055584  0.349922  0.685112  1
  O  O1755  1  0.349925  0.555594  0.631264  1
  O  O1756  1  0.444431  0.650132  0.631268  1
  O  O1757  1  0.349931  0.650093  0.605802  1
  O  O1758  1  0.349959  0.444454  0.631259  1
  O  O1759  1  0.444456  0.349966  0.631265  1
  O  O1760  1  0.349960  0.349957  0.605788  1
  O  O1761  1  0.349932  0.444437  0.819860  1
  O  O1762  1  0.349937  0.349940  0.845326  1
  O  O1763  1  0.444467  0.349945  0.819865  1
  O  O1764  1  0.349881  0.555572  0.819867  1
  O  O1765  1  0.349905  0.650078  0.845339  1
  O  O1766  1  0.444372  0.650090  0.819867  1
  O  O1767  1  0.079068  0.579102  0.776421  1
  O  O1768  1  0.188692  0.579139  0.746895  1
  O  O1769  1  0.079119  0.420875  0.776397  1
  O  O1770  1  0.188738  0.420894  0.746878  1
  O  O1771  1  0.079104  0.579122  0.674710  1
  O  O1772  1  0.188657  0.579080  0.704240  1
  O  O1773  1  0.079123  0.420857  0.674693  1
  O  O1774  1  0.188650  0.420848  0.704227  1
  O  O1775  1  0.311301  0.579148  0.612147  1
  O  O1776  1  0.420869  0.579172  0.641668  1
  O  O1777  1  0.311335  0.420894  0.612137  1
  O  O1778  1  0.420898  0.420911  0.641672  1
  O  O1779  1  0.420900  0.420891  0.809458  1
  O  O1780  1  0.311301  0.420869  0.838974  1
  O  O1781  1  0.420809  0.579152  0.809459  1
  O  O1782  1  0.311281  0.579126  0.838989  1
  O  O1783  1  0.199553  0.500022  0.756022  1
  O  O1784  1  -0.000000  0.386996  0.671780  1
  O  O1785  1  0.199505  0.499969  0.695098  1
  O  O1786  1  0.112999  0.499984  0.779332  1
  O  O1787  1  0.199531  0.612970  0.725569  1
  O  O1788  1  0.199549  0.386993  0.725555  1
  O  O1789  1  0.387003  0.500034  0.644592  1
  O  O1790  1  0.300446  0.613029  0.590826  1
  O  O1791  1  0.300476  0.387005  0.860300  1
  O  O1792  1  0.300435  0.499995  0.829851  1
  O  O1793  1  0.300470  0.500012  0.621275  1
  O  O1794  1  0.386973  0.500016  0.806533  1
  O  O1795  1  0.112997  0.499988  0.671773  1
  O  O1796  1  0.499930  0.613018  0.806530  1
  O  O1797  1  0.499995  0.613070  0.644599  1
  O  O1798  1  0.150382  0.730761  0.744406  1
  O  O1799  1  0.150416  0.769230  0.609657  1
  O  O1800  1  0.069898  0.849592  0.653015  1
  O  O1801  1  0.230767  0.930127  0.631348  1
  O  O1802  1  0.150434  0.730722  0.706742  1
  O  O1803  1  0.150378  0.769237  0.841470  1
  O  O1804  1  0.069898  0.849604  0.798118  1
  O  O1805  1  0.230757  0.930105  0.819773  1
  O  O1806  1  0.069861  0.730732  0.766102  1
  O  O1807  1  0.069895  0.769247  0.631358  1
  O  O1808  1  0.230768  0.849581  0.609654  1
  O  O1809  1  0.150419  0.930129  0.653002  1
  O  O1810  1  0.430109  0.730815  0.631365  1
  O  O1811  1  0.430077  0.769286  0.766103  1
  O  O1812  1  0.269176  0.849621  0.744403  1
  O  O1813  1  0.349582  0.930164  0.787752  1
  O  O1814  1  0.349577  0.769227  0.706745  1
  O  O1815  1  0.430060  0.849606  0.663394  1
  O  O1816  1  0.269202  0.930104  0.685036  1
  O  O1817  1  0.349551  0.730765  0.841482  1
  O  O1818  1  0.349543  0.769285  0.744410  1
  O  O1819  1  0.430095  0.849625  0.787762  1
  O  O1820  1  0.269247  0.930168  0.766096  1
  O  O1821  1  0.349586  0.730780  0.609664  1
  O  O1822  1  0.430111  0.769255  0.685041  1
  O  O1823  1  0.269237  0.849576  0.706724  1
  O  O1824  1  0.349570  0.930137  0.663380  1
  O  O1825  1  0.430062  0.730780  0.819778  1
  O  O1826  1  0.069872  0.769258  0.819769  1
  O  O1827  1  0.230729  0.849583  0.841464  1
  O  O1828  1  0.150389  0.930150  0.798122  1
  O  O1829  1  0.069936  0.730764  0.685038  1
  O  O1830  1  0.211960  0.712000  0.757802  1
  O  O1831  1  0.119562  0.711945  0.782696  1
  O  O1832  1  0.211985  0.880406  0.647945  1
  O  O1833  1  0.211973  0.788032  0.623062  1
  O  O1834  1  0.119620  0.788023  0.647954  1
  O  O1835  1  0.212002  0.711927  0.693343  1
  O  O1836  1  0.119650  0.711985  0.668445  1
  O  O1837  1  0.211951  0.880407  0.803175  1
  O  O1838  1  0.211941  0.788006  0.828066  1
  O  O1839  1  0.119622  0.788036  0.803177  1
  O  O1840  1  0.380369  0.712007  0.647955  1
  O  O1841  1  0.288027  0.711993  0.623068  1
  O  O1842  1  0.288008  0.880443  0.782687  1
  O  O1843  1  0.380365  0.788060  0.782698  1
  O  O1844  1  0.287966  0.788068  0.757810  1
  O  O1845  1  0.287995  0.880410  0.668441  1
  O  O1846  1  0.288039  0.787971  0.693332  1
  O  O1847  1  0.380343  0.788015  0.668459  1
  O  O1848  1  0.287986  0.711968  0.828078  1
  O  O1849  1  0.380326  0.712016  0.803186  1
  O  O1850  1  0.208551  0.902918  0.781769  1
  O  O1851  1  0.208528  0.708559  0.834126  1
  O  O1852  1  0.402787  0.708598  0.781775  1
  O  O1853  1  0.208599  0.791395  0.699387  1
  O  O1854  1  0.402810  0.791458  0.647045  1
  O  O1855  1  0.208548  0.902840  0.669361  1
  O  O1856  1  0.208570  0.708574  0.617014  1
  O  O1857  1  0.402839  0.708570  0.669367  1
  O  O1858  1  0.208511  0.791468  0.751760  1
  O  O1859  1  0.402788  0.791473  0.804112  1
  O  O1860  1  0.291433  0.902858  0.647027  1
  O  O1861  1  0.097164  0.708578  0.647034  1
  O  O1862  1  0.291444  0.708512  0.699397  1
  O  O1863  1  0.097144  0.791427  0.781770  1
  O  O1864  1  0.291388  0.791430  0.834124  1
  O  O1865  1  0.291432  0.791442  0.617012  1
  O  O1866  1  0.097213  0.791446  0.669370  1
  O  O1867  1  0.291414  0.902862  0.804100  1
  O  O1868  1  0.291411  0.708603  0.751759  1
  O  O1869  1  0.097100  0.708578  0.804102  1
  O  O1870  1  0.148342  0.758259  0.765557  1
  O  O1871  1  0.148369  0.741718  0.630811  1
  O  O1872  1  0.148379  0.851644  0.660424  1
  O  O1873  1  0.258288  0.851651  0.630805  1
  O  O1874  1  0.148416  0.758257  0.685591  1
  O  O1875  1  0.148335  0.741698  0.820321  1
  O  O1876  1  0.148352  0.851671  0.790691  1
  O  O1877  1  0.258253  0.851614  0.820313  1
  O  O1878  1  0.351632  0.758325  0.630814  1
  O  O1879  1  0.351590  0.741769  0.765558  1
  O  O1880  1  0.241668  0.851698  0.765551  1
  O  O1881  1  0.351609  0.851677  0.795169  1
  O  O1882  1  0.351661  0.741647  0.685602  1
  O  O1883  1  0.351591  0.851636  0.655974  1
  O  O1884  1  0.241718  0.851592  0.685577  1
  O  O1885  1  0.351588  0.758298  0.820332  1
  O  O1886  1  0.150082  0.944430  0.631254  1
  O  O1887  1  0.150086  0.849912  0.605790  1
  O  O1888  1  0.055596  0.849928  0.631267  1
  O  O1889  1  0.150078  0.944452  0.819868  1
  O  O1890  1  0.150047  0.849926  0.845330  1
  O  O1891  1  0.055559  0.849934  0.819864  1
  O  O1892  1  0.349949  0.944459  0.766005  1
  O  O1893  1  0.444405  0.849976  0.766018  1
  O  O1894  1  0.349862  0.849958  0.740540  1
  O  O1895  1  0.349891  0.944463  0.685123  1
  O  O1896  1  0.349906  0.849933  0.710593  1
  O  O1897  1  0.444407  0.849962  0.685133  1
  O  O1898  1  0.079120  0.688649  0.746896  1
  O  O1899  1  0.079152  0.811312  0.612146  1
  O  O1900  1  0.079146  0.920869  0.641670  1
  O  O1901  1  0.188704  0.920864  0.612137  1
  O  O1902  1  0.079139  0.688684  0.704247  1
  O  O1903  1  0.079099  0.811303  0.838983  1
  O  O1904  1  0.079130  0.920883  0.809462  1
  O  O1905  1  0.188691  0.920876  0.838983  1
  O  O1906  1  0.420871  0.688746  0.612152  1
  O  O1907  1  0.420810  0.811380  0.746899  1
  O  O1908  1  0.311282  0.920898  0.746885  1
  O  O1909  1  0.420883  0.920924  0.776428  1
  O  O1910  1  0.420854  0.811315  0.704250  1
  O  O1911  1  0.420842  0.920907  0.674722  1
  O  O1912  1  0.311282  0.920881  0.704241  1
  O  O1913  1  0.420838  0.688713  0.838989  1
  O  O1914  1  0.113009  0.699511  0.725572  1
  O  O1915  1  0.113010  0.800442  0.590819  1
  O  O1916  1  0.499997  0.699612  0.621281  1
  O  O1917  1  0.499949  0.800508  0.756017  1
  O  O1918  1  0.199554  0.886963  0.590815  1
  O  O1919  1  0.300393  0.886989  0.725562  1
  O  O1920  1  0.499997  0.886997  0.779347  1
  O  O1921  1  0.386957  0.800483  0.725574  1
  O  O1922  1  0.386970  0.699561  0.590826  1
  O  O1923  1  0.499956  0.699548  0.829848  1
  O  O1924  1  -0.000000  0.699583  0.695107  1
  O  O1925  1  -0.000000  0.887009  0.644592  1
  O  O1926  1  0.499966  0.887016  0.671790  1
  O  O1927  1  -0.000000  0.886992  0.806529  1
  O  O1928  1  -0.000000  0.800490  0.621272  1
  O  O1929  1  0.499989  0.800496  0.695113  1
  O  O1930  1  0.650446  0.230737  0.744406  1
  O  O1931  1  0.569910  0.150403  0.787753  1
  O  O1932  1  0.730788  0.069862  0.766097  1
  O  O1933  1  0.650451  0.269276  0.609662  1
  O  O1934  1  0.650430  0.230778  0.706729  1
  O  O1935  1  0.569878  0.150440  0.663374  1
  O  O1936  1  0.730768  0.069916  0.685028  1
  O  O1937  1  0.650440  0.269239  0.841476  1
  O  O1938  1  0.569912  0.230768  0.766099  1
  O  O1939  1  0.730796  0.150399  0.744398  1
  O  O1940  1  0.650412  0.069883  0.787743  1
  O  O1941  1  0.569919  0.269284  0.631358  1
  O  O1942  1  0.930157  0.230800  0.631341  1
  O  O1943  1  0.769246  0.150444  0.609663  1
  O  O1944  1  0.849620  0.069933  0.653012  1
  O  O1945  1  0.930103  0.269254  0.766093  1
  O  O1946  1  0.849604  0.269289  0.706719  1
  O  O1947  1  0.849552  0.230709  0.841461  1
  O  O1948  1  0.930107  0.150410  0.798113  1
  O  O1949  1  0.769243  0.069825  0.819775  1
  O  O1950  1  0.849593  0.269249  0.744386  1
  O  O1951  1  0.849596  0.230789  0.609644  1
  O  O1952  1  0.930135  0.150459  0.652995  1
  O  O1953  1  0.769242  0.069933  0.631362  1
  O  O1954  1  0.930119  0.269285  0.685021  1
  O  O1955  1  0.930086  0.230768  0.819770  1
  O  O1956  1  0.769198  0.150375  0.841471  1
  O  O1957  1  0.849613  0.069880  0.798129  1
  O  O1958  1  0.569916  0.269227  0.819776  1
  O  O1959  1  0.569906  0.230781  0.685032  1
  O  O1960  1  0.730792  0.150431  0.706731  1
  O  O1961  1  0.650419  0.069929  0.663378  1
  O  O1962  1  0.712014  0.119591  0.782686  1
  O  O1963  1  0.712025  0.211943  0.757806  1
  O  O1964  1  0.619638  0.211962  0.782693  1
  O  O1965  1  0.712020  0.288069  0.623065  1
  O  O1966  1  0.619645  0.288067  0.647952  1
  O  O1967  1  0.711994  0.119660  0.668442  1
  O  O1968  1  0.712003  0.211995  0.693329  1
  O  O1969  1  0.619612  0.212007  0.668437  1
  O  O1970  1  0.711995  0.288027  0.828070  1
  O  O1971  1  0.619648  0.288007  0.803182  1
  O  O1972  1  0.788050  0.119657  0.647954  1
  O  O1973  1  0.880418  0.212031  0.647934  1
  O  O1974  1  0.788068  0.212034  0.623058  1
  O  O1975  1  0.880368  0.288032  0.782685  1
  O  O1976  1  0.788038  0.288013  0.757793  1
  O  O1977  1  0.788027  0.288052  0.693318  1
  O  O1978  1  0.880387  0.288068  0.668428  1
  O  O1979  1  0.788021  0.119576  0.803187  1
  O  O1980  1  0.787990  0.211924  0.828060  1
  O  O1981  1  0.880383  0.211985  0.803174  1
  O  O1982  1  0.708559  0.208546  0.834119  1
  O  O1983  1  0.902821  0.208566  0.781763  1
  O  O1984  1  0.708582  0.097218  0.647032  1
  O  O1985  1  0.708574  0.291455  0.699373  1
  O  O1986  1  0.902866  0.291488  0.647016  1
  O  O1987  1  0.708605  0.208613  0.617015  1
  O  O1988  1  0.902868  0.208623  0.669346  1
  O  O1989  1  0.708574  0.097097  0.804096  1
  O  O1990  1  0.708584  0.291408  0.751755  1
  O  O1991  1  0.902824  0.291447  0.804096  1
  O  O1992  1  0.597175  0.208606  0.647027  1
  O  O1993  1  0.791463  0.208602  0.699376  1
  O  O1994  1  0.791463  0.097122  0.781774  1
  O  O1995  1  0.597205  0.291429  0.781771  1
  O  O1996  1  0.791431  0.291397  0.834117  1
  O  O1997  1  0.791467  0.097206  0.669363  1
  O  O1998  1  0.791469  0.291493  0.617006  1
  O  O1999  1  0.597184  0.291474  0.669362  1
  O  O2000  1  0.791465  0.208550  0.751743  1
  O  O2001  1  0.597197  0.208545  0.804105  1
  O  O2002  1  0.648409  0.258252  0.765555  1
  O  O2003  1  0.648401  0.148347  0.795167  1
  O  O2004  1  0.758355  0.148325  0.765545  1
  O  O2005  1  0.648403  0.241760  0.630812  1
  O  O2006  1  0.648389  0.258291  0.685577  1
  O  O2007  1  0.648369  0.148404  0.655961  1
  O  O2008  1  0.758316  0.148390  0.685584  1
  O  O2009  1  0.648390  0.241713  0.820325  1
  O  O2010  1  0.851694  0.258347  0.630791  1
  O  O2011  1  0.741761  0.148432  0.630816  1
  O  O2012  1  0.851666  0.148422  0.660423  1
  O  O2013  1  0.851643  0.241717  0.765539  1
  O  O2014  1  0.851645  0.241748  0.685570  1
  O  O2015  1  0.851601  0.258261  0.820313  1
  O  O2016  1  0.851623  0.148361  0.790705  1
  O  O2017  1  0.741669  0.148293  0.820325  1
  O  O2018  1  0.650080  0.055580  0.766000  1
  O  O2019  1  0.650097  0.150066  0.740539  1
  O  O2020  1  0.555568  0.150095  0.766007  1
  O  O2021  1  0.650067  0.055599  0.685119  1
  O  O2022  1  0.650101  0.150093  0.710590  1
  O  O2023  1  0.555579  0.150090  0.685119  1
  O  O2024  1  0.849921  0.055599  0.631266  1
  O  O2025  1  0.944440  0.150108  0.631249  1
  O  O2026  1  0.849919  0.150085  0.605792  1
  O  O2027  1  0.849944  0.055555  0.819874  1
  O  O2028  1  0.849882  0.150028  0.845331  1
  O  O2029  1  0.944426  0.150084  0.819857  1
  O  O2030  1  0.579150  0.188696  0.746889  1
  O  O2031  1  0.579126  0.079144  0.776407  1
  O  O2032  1  0.688727  0.079127  0.746885  1
  O  O2033  1  0.579156  0.311331  0.612147  1
  O  O2034  1  0.579159  0.188698  0.704240  1
  O  O2035  1  0.579118  0.079154  0.674708  1
  O  O2036  1  0.688706  0.079152  0.704237  1
  O  O2037  1  0.579162  0.311298  0.838988  1
  O  O2038  1  0.920872  0.188719  0.612132  1
  O  O2039  1  0.811293  0.079151  0.612149  1
  O  O2040  1  0.920874  0.079172  0.641662  1
  O  O2041  1  0.920859  0.311320  0.746880  1
  O  O2042  1  0.920880  0.311357  0.704231  1
  O  O2043  1  0.920827  0.188651  0.838974  1
  O  O2044  1  0.920889  0.079130  0.809459  1
  O  O2045  1  0.811262  0.079084  0.838991  1
  O  O2046  1  0.613046  0.199557  0.725566  1
  O  O2047  1  0.613055  0.300461  0.590825  1
  O  O2048  1  0.699534  -0.000000  0.756014  1
  O  O2049  1  0.886999  0.000000  0.644594  1
  O  O2050  1  0.699572  0.113018  0.725562  1
  O  O2051  1  0.500022  0.300487  0.621281  1
  O  O2052  1  0.800408  0.113015  0.590825  1
  O  O2053  1  0.886986  0.300502  0.725554  1
  O  O2054  1  0.886957  0.199526  0.860298  1
  O  O2055  1  0.699545  -0.000000  0.695102  1
  O  O2056  1  0.613015  -0.000000  0.671785  1
  O  O2057  1  0.800443  0.000000  0.621281  1
  O  O2058  1  0.500002  0.113043  0.779339  1
  O  O2059  1  0.500012  0.199574  0.756016  1
  O  O2060  1  0.613000  -0.000000  0.779331  1
  O  O2061  1  -0.000000  0.300466  0.756011  1
  O  O2062  1  -0.000000  0.199557  0.829855  1
  O  O2063  1  0.500029  0.300457  0.829854  1
  O  O2064  1  0.500028  0.199551  0.695115  1
  O  O2065  1  0.569896  0.650472  0.653007  1
  O  O2066  1  0.730753  0.569951  0.631342  1
  O  O2067  1  0.569914  0.349634  0.653009  1
  O  O2068  1  0.730766  0.430178  0.631352  1
  O  O2069  1  0.569806  0.650408  0.798110  1
  O  O2070  1  0.730694  0.569908  0.819762  1
  O  O2071  1  0.569926  0.349577  0.798123  1
  O  O2072  1  0.730785  0.430125  0.819779  1
  O  O2073  1  0.730748  0.650467  0.609640  1
  O  O2074  1  0.650422  0.569956  0.652998  1
  O  O2075  1  0.730789  0.349634  0.609662  1
  O  O2076  1  0.650412  0.430182  0.653007  1
  O  O2077  1  0.769202  0.650452  0.744385  1
  O  O2078  1  0.849492  0.569935  0.787738  1
  O  O2079  1  0.769224  0.349588  0.744397  1
  O  O2080  1  0.849582  0.430143  0.787743  1
  O  O2081  1  0.930102  0.349643  0.663369  1
  O  O2082  1  0.769242  0.430156  0.685030  1
  O  O2083  1  0.930119  0.650469  0.663374  1
  O  O2084  1  0.769257  0.569946  0.685018  1
  O  O2085  1  0.930093  0.349612  0.787741  1
  O  O2086  1  0.769214  0.430109  0.766092  1
  O  O2087  1  0.930029  0.650430  0.787747  1
  O  O2088  1  0.769140  0.569926  0.766085  1
  O  O2089  1  0.769237  0.349614  0.706721  1
  O  O2090  1  0.849597  0.430155  0.663378  1
  O  O2091  1  0.769277  0.650447  0.706717  1
  O  O2092  1  0.849607  0.569937  0.663360  1
  O  O2093  1  0.730793  0.349586  0.841474  1
  O  O2094  1  0.650436  0.430111  0.798124  1
  O  O2095  1  0.730706  0.650432  0.841459  1
  O  O2096  1  0.650334  0.569885  0.798111  1
  O  O2097  1  0.711991  0.619684  0.647934  1
  O  O2098  1  0.711978  0.380455  0.647946  1
  O  O2099  1  0.711883  0.619629  0.803169  1
  O  O2100  1  0.712015  0.380397  0.803186  1
  O  O2101  1  0.787921  0.619667  0.782675  1
  O  O2102  1  0.788033  0.380402  0.782689  1
  O  O2103  1  0.788026  0.380429  0.668438  1
  O  O2104  1  0.788047  0.619665  0.668421  1
  O  O2105  1  0.708581  0.402832  0.781771  1
  O  O2106  1  0.708470  0.597191  0.781755  1
  O  O2107  1  0.708570  0.402903  0.669358  1
  O  O2108  1  0.708590  0.597226  0.669346  1
  O  O2109  1  0.791433  0.402912  0.647028  1
  O  O2110  1  0.791450  0.597226  0.647008  1
  O  O2111  1  0.791344  0.597204  0.804086  1
  O  O2112  1  0.791457  0.402867  0.804103  1
  O  O2113  1  0.648386  0.648430  0.660419  1
  O  O2114  1  0.758278  0.648426  0.630789  1
  O  O2115  1  0.648379  0.351695  0.660429  1
  O  O2116  1  0.758312  0.351695  0.630809  1
  O  O2117  1  0.648269  0.648363  0.790689  1
  O  O2118  1  0.758194  0.648398  0.820307  1
  O  O2119  1  0.648408  0.351626  0.790708  1
  O  O2120  1  0.758324  0.351646  0.820326  1
  O  O2121  1  0.741626  0.648407  0.765531  1
  O  O2122  1  0.851535  0.648421  0.795155  1
  O  O2123  1  0.741734  0.351613  0.765550  1
  O  O2124  1  0.851640  0.351661  0.795166  1
  O  O2125  1  0.851630  0.351680  0.655951  1
  O  O2126  1  0.741706  0.351671  0.685576  1
  O  O2127  1  0.851652  0.648424  0.655946  1
  O  O2128  1  0.741761  0.648428  0.685565  1
  O  O2129  1  0.650060  0.555634  0.631254  1
  O  O2130  1  0.650054  0.650123  0.605787  1
  O  O2131  1  0.555560  0.650135  0.631265  1
  O  O2132  1  0.650080  0.444492  0.631261  1
  O  O2133  1  0.650100  0.349954  0.605799  1
  O  O2134  1  0.555598  0.349967  0.631263  1
  O  O2135  1  0.650015  0.555570  0.819859  1
  O  O2136  1  0.650020  0.650084  0.845325  1
  O  O2137  1  0.555513  0.650067  0.819856  1
  O  O2138  1  0.650092  0.444428  0.819868  1
  O  O2139  1  0.650108  0.349926  0.845337  1
  O  O2140  1  0.555604  0.349910  0.819868  1
  O  O2141  1  0.849829  0.555598  0.765996  1
  O  O2142  1  0.944387  0.650096  0.766006  1
  O  O2143  1  0.849896  0.650095  0.740536  1
  O  O2144  1  0.849886  0.444470  0.765995  1
  O  O2145  1  0.944404  0.349944  0.765996  1
  O  O2146  1  0.849909  0.349945  0.740533  1
  O  O2147  1  0.849934  0.444480  0.685122  1
  O  O2148  1  0.849924  0.349975  0.710581  1
  O  O2149  1  0.944441  0.349965  0.685114  1
  O  O2150  1  0.849930  0.555615  0.685107  1
  O  O2151  1  0.849965  0.650112  0.710584  1
  O  O2152  1  0.944435  0.650129  0.685120  1
  O  O2153  1  0.579124  0.579193  0.641670  1
  O  O2154  1  0.688679  0.579184  0.612134  1
  O  O2155  1  0.579146  0.420921  0.641669  1
  O  O2156  1  0.688705  0.420911  0.612144  1
  O  O2157  1  0.579061  0.579117  0.809449  1
  O  O2158  1  0.688646  0.579144  0.838975  1
  O  O2159  1  0.579162  0.420851  0.809462  1
  O  O2160  1  0.688722  0.420873  0.838988  1
  O  O2161  1  0.811229  0.579153  0.746878  1
  O  O2162  1  0.920775  0.579166  0.776404  1
  O  O2163  1  0.811265  0.420889  0.746880  1
  O  O2164  1  0.920836  0.420900  0.776400  1
  O  O2165  1  0.920879  0.420917  0.674712  1
  O  O2166  1  0.811288  0.420918  0.704240  1
  O  O2167  1  0.920868  0.579185  0.674707  1
  O  O2168  1  0.811341  0.579176  0.704228  1
  O  O2169  1  0.699532  0.500057  0.621269  1
  O  O2170  1  0.500031  0.387033  0.644594  1
  O  O2171  1  -0.000000  0.612995  0.779340  1
  O  O2172  1  0.699524  0.500014  0.829850  1
  O  O2173  1  0.613014  0.500066  0.644590  1
  O  O2174  1  0.699514  0.613051  0.860297  1
  O  O2175  1  0.699583  0.386991  0.590823  1
  O  O2176  1  0.886922  0.500040  0.779327  1
  O  O2177  1  0.800458  0.613050  0.725553  1
  O  O2178  1  0.800425  0.386990  0.725559  1
  O  O2179  1  0.800460  0.500053  0.695102  1
  O  O2180  1  0.800371  0.500021  0.756012  1
  O  O2181  1  0.886994  0.500046  0.671783  1
  O  O2182  1  0.612992  0.499986  0.806533  1
  O  O2183  1  -0.000000  0.387024  0.779323  1
  O  O2184  1  0.500037  0.386990  0.806536  1
  O  O2185  1  -0.000000  0.613054  0.671790  1
  O  O2186  1  0.650384  0.730813  0.609644  1
  O  O2187  1  0.650356  0.769278  0.744385  1
  O  O2188  1  0.569899  0.849587  0.787743  1
  O  O2189  1  0.730742  0.930116  0.766091  1
  O  O2190  1  0.650341  0.730772  0.841466  1
  O  O2191  1  0.650420  0.769259  0.706725  1
  O  O2192  1  0.569876  0.849633  0.663374  1
  O  O2193  1  0.730772  0.930137  0.685026  1
  O  O2194  1  0.569898  0.730820  0.631352  1
  O  O2195  1  0.569839  0.769258  0.766086  1
  O  O2196  1  0.730719  0.849612  0.744391  1
  O  O2197  1  0.650392  0.930115  0.787748  1
  O  O2198  1  0.930085  0.730788  0.766093  1
  O  O2199  1  0.930131  0.769287  0.631345  1
  O  O2200  1  0.769253  0.849622  0.609656  1
  O  O2201  1  0.849606  0.930146  0.653005  1
  O  O2202  1  0.849551  0.769222  0.841464  1
  O  O2203  1  0.930113  0.849605  0.798112  1
  O  O2204  1  0.769237  0.930096  0.819772  1
  O  O2205  1  0.849620  0.730802  0.706729  1
  O  O2206  1  0.849600  0.769272  0.609653  1
  O  O2207  1  0.930128  0.849636  0.652999  1
  O  O2208  1  0.769244  0.930130  0.631353  1
  O  O2209  1  0.849559  0.730786  0.744393  1
  O  O2210  1  0.930066  0.769252  0.819766  1
  O  O2211  1  0.769192  0.849582  0.841476  1
  O  O2212  1  0.849571  0.930126  0.798118  1
  O  O2213  1  0.930140  0.730816  0.685026  1
  O  O2214  1  0.569879  0.769277  0.685027  1
  O  O2215  1  0.730769  0.849615  0.706725  1
  O  O2216  1  0.650411  0.930137  0.663375  1
  O  O2217  1  0.569833  0.730757  0.819764  1
  O  O2218  1  0.711964  0.712031  0.623042  1
  O  O2219  1  0.619632  0.712040  0.647942  1
  O  O2220  1  0.711966  0.880399  0.782685  1
  O  O2221  1  0.711921  0.788048  0.757790  1
  O  O2222  1  0.619600  0.788005  0.782675  1
  O  O2223  1  0.711911  0.712008  0.828063  1
  O  O2224  1  0.619547  0.711973  0.803170  1
  O  O2225  1  0.711994  0.880408  0.668438  1
  O  O2226  1  0.712000  0.788038  0.693325  1
  O  O2227  1  0.619616  0.788068  0.668439  1
  O  O2228  1  0.880329  0.712021  0.782680  1
  O  O2229  1  0.787976  0.712012  0.757791  1
  O  O2230  1  0.788032  0.880411  0.647945  1
  O  O2231  1  0.880406  0.788068  0.647938  1
  O  O2232  1  0.788024  0.788053  0.623055  1
  O  O2233  1  0.787998  0.880381  0.803178  1
  O  O2234  1  0.787954  0.788035  0.828070  1
  O  O2235  1  0.880354  0.788061  0.803172  1
  O  O2236  1  0.788064  0.712026  0.693322  1
  O  O2237  1  0.880393  0.712037  0.668433  1
  O  O2238  1  0.708572  0.902862  0.647026  1
  O  O2239  1  0.708595  0.708589  0.699371  1
  O  O2240  1  0.902867  0.708622  0.647021  1
  O  O2241  1  0.708492  0.791453  0.834120  1
  O  O2242  1  0.902813  0.791469  0.781760  1
  O  O2243  1  0.708547  0.902842  0.804099  1
  O  O2244  1  0.708526  0.708609  0.751729  1
  O  O2245  1  0.902762  0.708596  0.804093  1
  O  O2246  1  0.708564  0.791479  0.616996  1
  O  O2247  1  0.902865  0.791484  0.669352  1
  O  O2248  1  0.791415  0.902855  0.781765  1
  O  O2249  1  0.597088  0.708568  0.781756  1
  O  O2250  1  0.791379  0.708575  0.834106  1
  O  O2251  1  0.597175  0.791488  0.647024  1
  O  O2252  1  0.791458  0.791468  0.699379  1
  O  O2253  1  0.791388  0.791458  0.751739  1
  O  O2254  1  0.597138  0.791429  0.804089  1
  O  O2255  1  0.791454  0.902863  0.669357  1
  O  O2256  1  0.791434  0.708615  0.616996  1
  O  O2257  1  0.597175  0.708615  0.669356  1
  O  O2258  1  0.648370  0.758344  0.630795  1
  O  O2259  1  0.648305  0.741700  0.765529  1
  O  O2260  1  0.648374  0.851616  0.795159  1
  O  O2261  1  0.758255  0.851643  0.765541  1
  O  O2262  1  0.648305  0.758292  0.820316  1
  O  O2263  1  0.648376  0.741744  0.685579  1
  O  O2264  1  0.648373  0.851666  0.655961  1
  O  O2265  1  0.758308  0.851655  0.685578  1
  O  O2266  1  0.851598  0.758331  0.765538  1
  O  O2267  1  0.851647  0.741747  0.630800  1
  O  O2268  1  0.741711  0.851656  0.630803  1
  O  O2269  1  0.851652  0.851669  0.660420  1
  O  O2270  1  0.851563  0.741762  0.820310  1
  O  O2271  1  0.851621  0.851669  0.790694  1
  O  O2272  1  0.741666  0.851644  0.820324  1
  O  O2273  1  0.851670  0.758351  0.685580  1
  O  O2274  1  0.650053  0.944436  0.766003  1
  O  O2275  1  0.650026  0.849963  0.740528  1
  O  O2276  1  0.555541  0.849949  0.766001  1
  O  O2277  1  0.650069  0.944458  0.685116  1
  O  O2278  1  0.650076  0.849949  0.710578  1
  O  O2279  1  0.555543  0.849968  0.685116  1
  O  O2280  1  0.849935  0.944468  0.631262  1
  O  O2281  1  0.944451  0.849975  0.631253  1
  O  O2282  1  0.849945  0.849951  0.605791  1
  O  O2283  1  0.849937  0.944398  0.819863  1
  O  O2284  1  0.849894  0.849891  0.845331  1
  O  O2285  1  0.944423  0.849930  0.819859  1
  O  O2286  1  0.579115  0.688736  0.612144  1
  O  O2287  1  0.579074  0.811343  0.746878  1
  O  O2288  1  0.579113  0.920882  0.776412  1
  O  O2289  1  0.688661  0.920889  0.746881  1
  O  O2290  1  0.579077  0.688688  0.838975  1
  O  O2291  1  0.579131  0.811345  0.704230  1
  O  O2292  1  0.579108  0.920910  0.674709  1
  O  O2293  1  0.688696  0.920897  0.704232  1
  O  O2294  1  0.920842  0.688710  0.746888  1
  O  O2295  1  0.920894  0.811334  0.612134  1
  O  O2296  1  0.811320  0.920900  0.612144  1
  O  O2297  1  0.920891  0.920916  0.641665  1
  O  O2298  1  0.920840  0.811298  0.838976  1
  O  O2299  1  0.920878  0.920871  0.809449  1
  O  O2300  1  0.811308  0.920830  0.838981  1
  O  O2301  1  0.920906  0.688757  0.704239  1
  O  O2302  1  0.612958  0.699560  0.860301  1
  O  O2303  1  0.612977  0.800497  0.725552  1
  O  O2304  1  -0.000000  0.699533  0.756019  1
  O  O2305  1  0.699523  0.887015  0.725555  1
  O  O2306  1  0.800454  0.886990  0.590820  1
  O  O2307  1  0.886970  0.800439  0.860302  1
  O  O2308  1  0.886993  0.699570  0.725564  1
  O  O2309  1  0.000000  0.800451  0.829845  1
  O  O2310  1  0.886999  0.000000  0.806539  1
  O  O2311  1  0.800481  -0.000000  0.829856  1
  O  O2312  1  0.387009  0.300478  0.860305  1
  O  O2313  1  0.300446  0.613029  0.860314  1
  O  O2314  1  0.113010  0.800442  0.860307  1
  O  O2315  1  0.199554  0.886963  0.860303  1
  O  O2316  1  0.386970  0.699561  0.860315  1
  O  O2317  1  0.613055  0.300461  0.860313  1
  O  O2318  1  0.800408  0.113015  0.860313  1
  O  O2319  1  0.699583  0.386991  0.860311  1
  O  O2320  1  0.800454  0.886990  0.860308  1
  Si  Si2321  1  0.121510  0.050263  0.269450  1
  Si  Si2322  1  0.192602  0.121548  0.307788  1
  Si  Si2323  1  0.050212  0.192603  0.288587  1
  Si  Si2324  1  0.050252  0.307433  0.153835  1
  Si  Si2325  1  0.179285  0.250113  0.080981  1
  Si  Si2326  1  0.108138  0.179248  0.119229  1
  Si  Si2327  1  0.250121  0.108141  0.100139  1
  Si  Si2328  1  0.179247  0.249942  0.215735  1
  Si  Si2329  1  0.108096  0.320788  0.253980  1
  Si  Si2330  1  0.179230  0.250132  0.292175  1
  Si  Si2331  1  0.108131  0.179274  0.253933  1
  Si  Si2332  1  0.250108  0.108163  0.273025  1
  Si  Si2333  1  0.179245  0.249905  0.157437  1
  Si  Si2334  1  0.108138  0.320734  0.119178  1
  Si  Si2335  1  0.108145  0.250094  0.100135  1
  Si  Si2336  1  0.250148  0.179274  0.080985  1
  Si  Si2337  1  0.179246  0.108145  0.119226  1
  Si  Si2338  1  0.108114  0.249922  0.234890  1
  Si  Si2339  1  0.250118  0.320770  0.215723  1
  Si  Si2340  1  0.391871  0.250136  0.234887  1
  Si  Si2341  1  0.249867  0.179248  0.215730  1
  Si  Si2342  1  0.320743  0.108198  0.253978  1
  Si  Si2343  1  0.391873  0.249965  0.100158  1
  Si  Si2344  1  0.249930  0.320779  0.080976  1
  Si  Si2345  1  0.320762  0.249948  0.292181  1
  Si  Si2346  1  0.391900  0.320791  0.253927  1
  Si  Si2347  1  0.320771  0.250121  0.157446  1
  Si  Si2348  1  0.391845  0.179308  0.119199  1
  Si  Si2349  1  0.249876  0.108159  0.138275  1
  Si  Si2350  1  0.320795  0.249941  0.080987  1
  Si  Si2351  1  0.391909  0.320811  0.119252  1
  Si  Si2352  1  0.320737  0.250079  0.215731  1
  Si  Si2353  1  0.391862  0.179292  0.253982  1
  Si  Si2354  1  0.249865  0.108142  0.234891  1
  Si  Si2355  1  0.391882  0.249946  0.273022  1
  Si  Si2356  1  0.249894  0.320781  0.292178  1
  Si  Si2357  1  0.391907  0.250155  0.138292  1
  Si  Si2358  1  0.249921  0.179272  0.157434  1
  Si  Si2359  1  0.320752  0.108189  0.119187  1
  Si  Si2360  1  0.108141  0.249891  0.138273  1
  Si  Si2361  1  0.250095  0.320756  0.157438  1
  Si  Si2362  1  0.108087  0.250142  0.273022  1
  Si  Si2363  1  0.250098  0.179300  0.292177  1
  Si  Si2364  1  0.179229  0.108159  0.253938  1
  Si  Si2365  1  0.121559  0.192586  0.065372  1
  Si  Si2366  1  0.050247  0.121512  0.103721  1
  Si  Si2367  1  0.192596  0.050242  0.084575  1
  Si  Si2368  1  0.121518  0.307460  0.200124  1
  Si  Si2369  1  0.121523  0.192586  0.307784  1
  Si  Si2370  1  0.050242  0.121536  0.269441  1
  Si  Si2371  1  0.192608  0.050248  0.288590  1
  Si  Si2372  1  0.121507  0.307417  0.173047  1
  Si  Si2373  1  0.050256  0.192566  0.084571  1
  Si  Si2374  1  0.192629  0.121540  0.065376  1
  Si  Si2375  1  0.121516  0.050241  0.103720  1
  Si  Si2376  1  0.050222  0.307442  0.219324  1
  Si  Si2377  1  0.449771  0.192597  0.219328  1
  Si  Si2378  1  0.307397  0.121524  0.200121  1
  Si  Si2379  1  0.378488  0.050286  0.238478  1
  Si  Si2380  1  0.449783  0.307470  0.084592  1
  Si  Si2381  1  0.378508  0.307453  0.307790  1
  Si  Si2382  1  0.378492  0.192568  0.173050  1
  Si  Si2383  1  0.449747  0.121544  0.134697  1
  Si  Si2384  1  0.307390  0.050251  0.153838  1
  Si  Si2385  1  0.378529  0.307466  0.065380  1
  Si  Si2386  1  0.378480  0.192556  0.200126  1
  Si  Si2387  1  0.449765  0.121548  0.238480  1
  Si  Si2388  1  0.307420  0.050265  0.219331  1
  Si  Si2389  1  0.449792  0.307451  0.288586  1
  Si  Si2390  1  0.449787  0.192590  0.153849  1
  Si  Si2391  1  0.307421  0.121523  0.173044  1
  Si  Si2392  1  0.378471  0.050275  0.134694  1
  Si  Si2393  1  0.121478  0.550221  0.134686  1
  Si  Si2394  1  0.192548  0.621446  0.173054  1
  Si  Si2395  1  0.250032  0.608184  0.234902  1
  Si  Si2396  1  0.250126  0.391875  0.234884  1
  Si  Si2397  1  0.250088  0.608116  0.138288  1
  Si  Si2398  1  0.250087  0.391847  0.138273  1
  Si  Si2399  1  0.179177  0.608131  0.253995  1
  Si  Si2400  1  0.179248  0.391848  0.253970  1
  Si  Si2401  1  0.320752  0.608146  0.119248  1
  Si  Si2402  1  0.320780  0.391892  0.119241  1
  Si  Si2403  1  0.249903  0.391872  0.273013  1
  Si  Si2404  1  0.249845  0.608131  0.273035  1
  Si  Si2405  1  0.249944  0.391860  0.100143  1
  Si  Si2406  1  0.249901  0.608139  0.100153  1
  Si  Si2407  1  0.320781  0.391883  0.253926  1
  Si  Si2408  1  0.320697  0.608165  0.253941  1
  Si  Si2409  1  0.179249  0.391835  0.119175  1
  Si  Si2410  1  0.179240  0.608139  0.119192  1
  Si  Si2411  1  0.050168  0.621476  0.238487  1
  Si  Si2412  1  0.192544  0.550250  0.219340  1
  Si  Si2413  1  0.050206  0.378515  0.238469  1
  Si  Si2414  1  0.192591  0.449778  0.219325  1
  Si  Si2415  1  0.050236  0.621519  0.134697  1
  Si  Si2416  1  0.192529  0.550207  0.153839  1
  Si  Si2417  1  0.050237  0.378475  0.134682  1
  Si  Si2418  1  0.192530  0.449736  0.153830  1
  Si  Si2419  1  0.192575  0.621505  0.200131  1
  Si  Si2420  1  0.121464  0.550227  0.238484  1
  Si  Si2421  1  0.192588  0.378508  0.200118  1
  Si  Si2422  1  0.121506  0.449755  0.238467  1
  Si  Si2423  1  0.307434  0.621530  0.065387  1
  Si  Si2424  1  0.378498  0.550268  0.103738  1
  Si  Si2425  1  0.307465  0.378520  0.065374  1
  Si  Si2426  1  0.378513  0.449798  0.103736  1
  Si  Si2427  1  0.449795  0.378512  0.269438  1
  Si  Si2428  1  0.307426  0.449766  0.288578  1
  Si  Si2429  1  0.449696  0.621529  0.269438  1
  Si  Si2430  1  0.307395  0.550236  0.288592  1
  Si  Si2431  1  0.449792  0.378536  0.103739  1
  Si  Si2432  1  0.307463  0.449777  0.084584  1
  Si  Si2433  1  0.449755  0.621553  0.103740  1
  Si  Si2434  1  0.307432  0.550248  0.084590  1
  Si  Si2435  1  0.307437  0.378498  0.307785  1
  Si  Si2436  1  0.378513  0.449775  0.269435  1
  Si  Si2437  1  0.307414  0.621507  0.307798  1
  Si  Si2438  1  0.378442  0.550245  0.269438  1
  Si  Si2439  1  0.192554  0.378487  0.173041  1
  Si  Si2440  1  0.121499  0.449751  0.134673  1
  Si  Si2441  1  0.050264  0.692573  0.153847  1
  Si  Si2442  1  0.121499  0.949792  0.269443  1
  Si  Si2443  1  0.192547  0.878486  0.307789  1
  Si  Si2444  1  0.179216  0.750109  0.215737  1
  Si  Si2445  1  0.108060  0.679223  0.253992  1
  Si  Si2446  1  0.179246  0.749907  0.080993  1
  Si  Si2447  1  0.108153  0.820758  0.119250  1
  Si  Si2448  1  0.250100  0.891886  0.100147  1
  Si  Si2449  1  0.179279  0.750054  0.157459  1
  Si  Si2450  1  0.108151  0.679259  0.119196  1
  Si  Si2451  1  0.179210  0.749891  0.292186  1
  Si  Si2452  1  0.108143  0.820769  0.253928  1
  Si  Si2453  1  0.250072  0.891860  0.273021  1
  Si  Si2454  1  0.108105  0.750071  0.234899  1
  Si  Si2455  1  0.250079  0.679269  0.215735  1
  Si  Si2456  1  0.108139  0.749911  0.100156  1
  Si  Si2457  1  0.250093  0.820761  0.080990  1
  Si  Si2458  1  0.179246  0.891877  0.119240  1
  Si  Si2459  1  0.391853  0.750136  0.100162  1
  Si  Si2460  1  0.249910  0.679260  0.080996  1
  Si  Si2461  1  0.391831  0.749945  0.234900  1
  Si  Si2462  1  0.249846  0.820797  0.215738  1
  Si  Si2463  1  0.320743  0.891911  0.253984  1
  Si  Si2464  1  0.320760  0.749853  0.157462  1
  Si  Si2465  1  0.391814  0.820757  0.119211  1
  Si  Si2466  1  0.249877  0.891853  0.138288  1
  Si  Si2467  1  0.320713  0.750093  0.292196  1
  Si  Si2468  1  0.391794  0.679280  0.253937  1
  Si  Si2469  1  0.320706  0.749954  0.215742  1
  Si  Si2470  1  0.391836  0.820792  0.253994  1
  Si  Si2471  1  0.249887  0.891932  0.234891  1
  Si  Si2472  1  0.320756  0.750115  0.080997  1
  Si  Si2473  1  0.391844  0.679265  0.119249  1
  Si  Si2474  1  0.391861  0.749888  0.138298  1
  Si  Si2475  1  0.249924  0.820718  0.157442  1
  Si  Si2476  1  0.320733  0.891886  0.119194  1
  Si  Si2477  1  0.391812  0.750126  0.273032  1
  Si  Si2478  1  0.249867  0.679236  0.292196  1
  Si  Si2479  1  0.108117  0.749919  0.273021  1
  Si  Si2480  1  0.250057  0.820745  0.292180  1
  Si  Si2481  1  0.179217  0.891907  0.253928  1
  Si  Si2482  1  0.108189  0.750100  0.138291  1
  Si  Si2483  1  0.250113  0.679186  0.157459  1
  Si  Si2484  1  0.121500  0.692548  0.200135  1
  Si  Si2485  1  0.121520  0.807420  0.065380  1
  Si  Si2486  1  0.050258  0.878492  0.103742  1
  Si  Si2487  1  0.192575  0.949769  0.084579  1
  Si  Si2488  1  0.121516  0.692532  0.173059  1
  Si  Si2489  1  0.121484  0.807432  0.307792  1
  Si  Si2490  1  0.050246  0.878501  0.269436  1
  Si  Si2491  1  0.192578  0.949776  0.288588  1
  Si  Si2492  1  0.050213  0.692532  0.219338  1
  Si  Si2493  1  0.050260  0.807444  0.084591  1
  Si  Si2494  1  0.192578  0.878480  0.065377  1
  Si  Si2495  1  0.121520  0.949770  0.103730  1
  Si  Si2496  1  0.449760  0.692630  0.084596  1
  Si  Si2497  1  0.449717  0.807491  0.219340  1
  Si  Si2498  1  0.307367  0.878517  0.200126  1
  Si  Si2499  1  0.378497  0.949814  0.238484  1
  Si  Si2500  1  0.378470  0.807442  0.173058  1
  Si  Si2501  1  0.449729  0.878524  0.134705  1
  Si  Si2502  1  0.307396  0.949779  0.153845  1
  Si  Si2503  1  0.378463  0.692575  0.307801  1
  Si  Si2504  1  0.378441  0.807475  0.200134  1
  Si  Si2505  1  0.449752  0.878530  0.238494  1
  Si  Si2506  1  0.307454  0.949795  0.219330  1
  Si  Si2507  1  0.378489  0.692591  0.065389  1
  Si  Si2508  1  0.449745  0.807463  0.153852  1
  Si  Si2509  1  0.307407  0.878497  0.173048  1
  Si  Si2510  1  0.378465  0.949802  0.134697  1
  Si  Si2511  1  0.449713  0.692581  0.288589  1
  Si  Si2512  1  0.050214  0.807440  0.288584  1
  Si  Si2513  1  0.621504  0.050266  0.134691  1
  Si  Si2514  1  0.679287  0.250059  0.215738  1
  Si  Si2515  1  0.608169  0.179227  0.253988  1
  Si  Si2516  1  0.750140  0.108104  0.234891  1
  Si  Si2517  1  0.679287  0.249950  0.080996  1
  Si  Si2518  1  0.608162  0.320800  0.119247  1
  Si  Si2519  1  0.679263  0.250109  0.157443  1
  Si  Si2520  1  0.608133  0.179276  0.119189  1
  Si  Si2521  1  0.750116  0.108171  0.138285  1
  Si  Si2522  1  0.679267  0.249905  0.292189  1
  Si  Si2523  1  0.608179  0.320746  0.253935  1
  Si  Si2524  1  0.608167  0.250083  0.234897  1
  Si  Si2525  1  0.750144  0.179216  0.215732  1
  Si  Si2526  1  0.679266  0.108112  0.253980  1
  Si  Si2527  1  0.608167  0.249950  0.100154  1
  Si  Si2528  1  0.750132  0.320806  0.080994  1
  Si  Si2529  1  0.891914  0.250148  0.100138  1
  Si  Si2530  1  0.749944  0.179297  0.080996  1
  Si  Si2531  1  0.820792  0.108185  0.119248  1
  Si  Si2532  1  0.891854  0.249913  0.234889  1
  Si  Si2533  1  0.749913  0.320744  0.215731  1
  Si  Si2534  1  0.820769  0.249942  0.157436  1
  Si  Si2535  1  0.891861  0.320801  0.119179  1
  Si  Si2536  1  0.820722  0.250048  0.292176  1
  Si  Si2537  1  0.891853  0.179247  0.253927  1
  Si  Si2538  1  0.749895  0.108070  0.273028  1
  Si  Si2539  1  0.820771  0.249900  0.215720  1
  Si  Si2540  1  0.891854  0.320769  0.253980  1
  Si  Si2541  1  0.820792  0.250150  0.080979  1
  Si  Si2542  1  0.891890  0.179300  0.119231  1
  Si  Si2543  1  0.749929  0.108191  0.100157  1
  Si  Si2544  1  0.891872  0.249951  0.138272  1
  Si  Si2545  1  0.749905  0.320780  0.157437  1
  Si  Si2546  1  0.891846  0.250104  0.273018  1
  Si  Si2547  1  0.749872  0.179197  0.292183  1
  Si  Si2548  1  0.820768  0.108118  0.253940  1
  Si  Si2549  1  0.608163  0.249891  0.273027  1
  Si  Si2550  1  0.750118  0.320755  0.292187  1
  Si  Si2551  1  0.608148  0.250123  0.138282  1
  Si  Si2552  1  0.750128  0.179271  0.157448  1
  Si  Si2553  1  0.679255  0.108185  0.119194  1
  Si  Si2554  1  0.621534  0.192561  0.200128  1
  Si  Si2555  1  0.550242  0.121525  0.238481  1
  Si  Si2556  1  0.692583  0.050236  0.219329  1
  Si  Si2557  1  0.621542  0.307457  0.065386  1
  Si  Si2558  1  0.621535  0.192583  0.173051  1
  Si  Si2559  1  0.550228  0.121534  0.134691  1
  Si  Si2560  1  0.692567  0.050263  0.153839  1
  Si  Si2561  1  0.621543  0.307434  0.307798  1
  Si  Si2562  1  0.550250  0.192585  0.219332  1
  Si  Si2563  1  0.692596  0.121506  0.200124  1
  Si  Si2564  1  0.621502  0.050244  0.238473  1
  Si  Si2565  1  0.550262  0.307471  0.084591  1
  Si  Si2566  1  0.949779  0.192595  0.084574  1
  Si  Si2567  1  0.807418  0.121524  0.065386  1
  Si  Si2568  1  0.878502  0.050274  0.103739  1
  Si  Si2569  1  0.949745  0.307446  0.219325  1
  Si  Si2570  1  0.878496  0.307486  0.173040  1
  Si  Si2571  1  0.878450  0.192521  0.307785  1
  Si  Si2572  1  0.949765  0.121516  0.269431  1
  Si  Si2573  1  0.807439  0.050196  0.288592  1
  Si  Si2574  1  0.878482  0.307459  0.200116  1
  Si  Si2575  1  0.878482  0.192577  0.065373  1
  Si  Si2576  1  0.949770  0.121547  0.103725  1
  Si  Si2577  1  0.807422  0.050263  0.084594  1
  Si  Si2578  1  0.949774  0.307473  0.153835  1
  Si  Si2579  1  0.949735  0.192569  0.288582  1
  Si  Si2580  1  0.807383  0.121472  0.307797  1
  Si  Si2581  1  0.878512  0.050229  0.269446  1
  Si  Si2582  1  0.550271  0.307421  0.288590  1
  Si  Si2583  1  0.550264  0.192577  0.153844  1
  Si  Si2584  1  0.692594  0.121523  0.173048  1
  Si  Si2585  1  0.621448  0.550230  0.269432  1
  Si  Si2586  1  0.621528  0.449759  0.269440  1
  Si  Si2587  1  0.692520  0.621526  0.307783  1
  Si  Si2588  1  0.750100  0.608201  0.100134  1
  Si  Si2589  1  0.750100  0.391933  0.100149  1
  Si  Si2590  1  0.750007  0.608163  0.273013  1
  Si  Si2591  1  0.750130  0.391881  0.273031  1
  Si  Si2592  1  0.679262  0.608205  0.119232  1
  Si  Si2593  1  0.679245  0.391930  0.119243  1
  Si  Si2594  1  0.820659  0.608192  0.253971  1
  Si  Si2595  1  0.820766  0.391892  0.253984  1
  Si  Si2596  1  0.749906  0.391909  0.138282  1
  Si  Si2597  1  0.749935  0.608197  0.138269  1
  Si  Si2598  1  0.749911  0.391856  0.234891  1
  Si  Si2599  1  0.749805  0.608182  0.234877  1
  Si  Si2600  1  0.820760  0.391911  0.119189  1
  Si  Si2601  1  0.820777  0.608191  0.119172  1
  Si  Si2602  1  0.679276  0.391862  0.253937  1
  Si  Si2603  1  0.679151  0.608142  0.253920  1
  Si  Si2604  1  0.550233  0.621569  0.103740  1
  Si  Si2605  1  0.692553  0.550295  0.084579  1
  Si  Si2606  1  0.550269  0.378535  0.103738  1
  Si  Si2607  1  0.692571  0.449822  0.084585  1
  Si  Si2608  1  0.550173  0.621499  0.269429  1
  Si  Si2609  1  0.692516  0.550243  0.288579  1
  Si  Si2610  1  0.550273  0.378475  0.269441  1
  Si  Si2611  1  0.692583  0.449770  0.288591  1
  Si  Si2612  1  0.692549  0.621559  0.065371  1
  Si  Si2613  1  0.621506  0.550301  0.103732  1
  Si  Si2614  1  0.692593  0.378523  0.065386  1
  Si  Si2615  1  0.621514  0.449831  0.103736  1
  Si  Si2616  1  0.807398  0.621537  0.200117  1
  Si  Si2617  1  0.878398  0.550271  0.238471  1
  Si  Si2618  1  0.807406  0.378501  0.200121  1
  Si  Si2619  1  0.878460  0.449800  0.238469  1
  Si  Si2620  1  0.949760  0.378533  0.134687  1
  Si  Si2621  1  0.807435  0.449813  0.153843  1
  Si  Si2622  1  0.949759  0.621563  0.134692  1
  Si  Si2623  1  0.807445  0.550285  0.153832  1
  Si  Si2624  1  0.949727  0.378521  0.238470  1
  Si  Si2625  1  0.807385  0.449788  0.219323  1
  Si  Si2626  1  0.949689  0.621523  0.238480  1
  Si  Si2627  1  0.807336  0.550261  0.219322  1
  Si  Si2628  1  0.807419  0.378525  0.173044  1
  Si  Si2629  1  0.878499  0.449813  0.134694  1
  Si  Si2630  1  0.807467  0.621547  0.173040  1
  Si  Si2631  1  0.878497  0.550284  0.134680  1
  Si  Si2632  1  0.692603  0.378492  0.307796  1
  Si  Si2633  1  0.807437  0.949791  0.084589  1
  Si  Si2634  1  0.550189  0.692561  0.288577  1
  Si  Si2635  1  0.878466  0.692587  0.200124  1
  Si  Si2636  1  0.878494  0.949758  0.269434  1
  Si  Si2637  1  0.621497  0.949794  0.134689  1
  Si  Si2638  1  0.692566  0.878519  0.173040  1
  Si  Si2639  1  0.550221  0.807475  0.153837  1
  Si  Si2640  1  0.949786  0.692623  0.153840  1
  Si  Si2641  1  0.807408  0.878465  0.307794  1
  Si  Si2642  1  0.878503  0.807454  0.065376  1
  Si  Si2643  1  0.949735  0.807434  0.288579  1
  Si  Si2644  1  0.949781  0.878536  0.103730  1
  Si  Si2645  1  0.679230  0.750150  0.080974  1
  Si  Si2646  1  0.608154  0.679307  0.119238  1
  Si  Si2647  1  0.679192  0.749929  0.215715  1
  Si  Si2648  1  0.608146  0.820738  0.253973  1
  Si  Si2649  1  0.750081  0.891872  0.234886  1
  Si  Si2650  1  0.679175  0.750118  0.292183  1
  Si  Si2651  1  0.608050  0.679249  0.253920  1
  Si  Si2652  1  0.679265  0.749921  0.157442  1
  Si  Si2653  1  0.608136  0.820797  0.119190  1
  Si  Si2654  1  0.750117  0.891884  0.138282  1
  Si  Si2655  1  0.608153  0.750158  0.100145  1
  Si  Si2656  1  0.750085  0.679302  0.080972  1
  Si  Si2657  1  0.608087  0.749898  0.234878  1
  Si  Si2658  1  0.750050  0.820774  0.215723  1
  Si  Si2659  1  0.679231  0.891865  0.253981  1
  Si  Si2660  1  0.891827  0.750135  0.234883  1
  Si  Si2661  1  0.749856  0.679285  0.215716  1
  Si  Si2662  1  0.891885  0.749949  0.100142  1
  Si  Si2663  1  0.749905  0.820786  0.080985  1
  Si  Si2664  1  0.820771  0.891895  0.119239  1
  Si  Si2665  1  0.820695  0.749918  0.292178  1
  Si  Si2666  1  0.891849  0.820788  0.253923  1
  Si  Si2667  1  0.749882  0.891858  0.273024  1
  Si  Si2668  1  0.820791  0.750144  0.157443  1
  Si  Si2669  1  0.891873  0.679306  0.119184  1
  Si  Si2670  1  0.820760  0.749939  0.080984  1
  Si  Si2671  1  0.891883  0.820797  0.119235  1
  Si  Si2672  1  0.749908  0.891882  0.100148  1
  Si  Si2673  1  0.820714  0.750128  0.215722  1
  Si  Si2674  1  0.891780  0.679283  0.253976  1
  Si  Si2675  1  0.891806  0.749938  0.273016  1
  Si  Si2676  1  0.749839  0.820766  0.292190  1
  Si  Si2677  1  0.820731  0.891881  0.253930  1
  Si  Si2678  1  0.891887  0.750153  0.138278  1
  Si  Si2679  1  0.749944  0.679288  0.157434  1
  Si  Si2680  1  0.608143  0.749945  0.138283  1
  Si  Si2681  1  0.750114  0.820776  0.157442  1
  Si  Si2682  1  0.679254  0.891889  0.119191  1
  Si  Si2683  1  0.608085  0.750092  0.273016  1
  Si  Si2684  1  0.750030  0.679270  0.292174  1
  Si  Si2685  1  0.621481  0.692609  0.065375  1
  Si  Si2686  1  0.621454  0.807475  0.200115  1
  Si  Si2687  1  0.550229  0.878500  0.238479  1
  Si  Si2688  1  0.692544  0.949769  0.219327  1
  Si  Si2689  1  0.621449  0.692572  0.307787  1
  Si  Si2690  1  0.621509  0.807459  0.173039  1
  Si  Si2691  1  0.550211  0.878535  0.134689  1
  Si  Si2692  1  0.692569  0.949792  0.153836  1
  Si  Si2693  1  0.550236  0.692625  0.084590  1
  Si  Si2694  1  0.550193  0.807465  0.219324  1
  Si  Si2695  1  0.692530  0.878517  0.200117  1
  Si  Si2696  1  0.621492  0.949774  0.238479  1
  Si  Si2697  1  0.949737  0.692583  0.219331  1
  Si  Si2698  1  0.949783  0.807479  0.084580  1
  Si  Si2699  1  0.807450  0.878519  0.065383  1
  Si  Si2700  1  0.878507  0.949804  0.103736  1
  Si  Si2701  1  0.878464  0.807403  0.307787  1
  Si  Si2702  1  0.949769  0.878494  0.269431  1
  Si  Si2703  1  0.807443  0.949727  0.288586  1
  Si  Si2704  1  0.878522  0.692608  0.173048  1
  Si  Si2705  1  0.121510  0.050263  0.538938  1
  Si  Si2706  1  0.192602  0.121548  0.577276  1
  Si  Si2707  1  0.050212  0.192603  0.558076  1
  Si  Si2708  1  0.050252  0.307433  0.423323  1
  Si  Si2709  1  0.179285  0.250113  0.350469  1
  Si  Si2710  1  0.108138  0.179248  0.388717  1
  Si  Si2711  1  0.250121  0.108141  0.369627  1
  Si  Si2712  1  0.179247  0.249942  0.485223  1
  Si  Si2713  1  0.108096  0.320788  0.523468  1
  Si  Si2714  1  0.179230  0.250132  0.561663  1
  Si  Si2715  1  0.108131  0.179274  0.523421  1
  Si  Si2716  1  0.250108  0.108163  0.542513  1
  Si  Si2717  1  0.179245  0.249905  0.426925  1
  Si  Si2718  1  0.108138  0.320734  0.388666  1
  Si  Si2719  1  0.108145  0.250094  0.369623  1
  Si  Si2720  1  0.250148  0.179274  0.350473  1
  Si  Si2721  1  0.179246  0.108145  0.388714  1
  Si  Si2722  1  0.108114  0.249922  0.504378  1
  Si  Si2723  1  0.250118  0.320770  0.485211  1
  Si  Si2724  1  0.391871  0.250136  0.504375  1
  Si  Si2725  1  0.249867  0.179248  0.485218  1
  Si  Si2726  1  0.320743  0.108198  0.523466  1
  Si  Si2727  1  0.391873  0.249965  0.369646  1
  Si  Si2728  1  0.249930  0.320779  0.350464  1
  Si  Si2729  1  0.320762  0.249948  0.561669  1
  Si  Si2730  1  0.391900  0.320791  0.523415  1
  Si  Si2731  1  0.320771  0.250121  0.426934  1
  Si  Si2732  1  0.391845  0.179308  0.388687  1
  Si  Si2733  1  0.249876  0.108159  0.407763  1
  Si  Si2734  1  0.320795  0.249941  0.350475  1
  Si  Si2735  1  0.391909  0.320811  0.388740  1
  Si  Si2736  1  0.320737  0.250079  0.485219  1
  Si  Si2737  1  0.391862  0.179292  0.523470  1
  Si  Si2738  1  0.249865  0.108142  0.504379  1
  Si  Si2739  1  0.391882  0.249946  0.542510  1
  Si  Si2740  1  0.249894  0.320781  0.561666  1
  Si  Si2741  1  0.391907  0.250155  0.407780  1
  Si  Si2742  1  0.249921  0.179272  0.426922  1
  Si  Si2743  1  0.320752  0.108189  0.388676  1
  Si  Si2744  1  0.108141  0.249891  0.407762  1
  Si  Si2745  1  0.250095  0.320756  0.426926  1
  Si  Si2746  1  0.108087  0.250142  0.542510  1
  Si  Si2747  1  0.250098  0.179300  0.561665  1
  Si  Si2748  1  0.179229  0.108159  0.523426  1
  Si  Si2749  1  0.121559  0.192586  0.334860  1
  Si  Si2750  1  0.050247  0.121512  0.373209  1
  Si  Si2751  1  0.192596  0.050242  0.354064  1
  Si  Si2752  1  0.121518  0.307460  0.469612  1
  Si  Si2753  1  0.121523  0.192586  0.577272  1
  Si  Si2754  1  0.050242  0.121536  0.538929  1
  Si  Si2755  1  0.192608  0.050248  0.558078  1
  Si  Si2756  1  0.121507  0.307417  0.442535  1
  Si  Si2757  1  0.050256  0.192566  0.354059  1
  Si  Si2758  1  0.192629  0.121540  0.334864  1
  Si  Si2759  1  0.121516  0.050241  0.373208  1
  Si  Si2760  1  0.050222  0.307442  0.488813  1
  Si  Si2761  1  0.449771  0.192597  0.488816  1
  Si  Si2762  1  0.307397  0.121524  0.469610  1
  Si  Si2763  1  0.378488  0.050286  0.507966  1
  Si  Si2764  1  0.449783  0.307470  0.354080  1
  Si  Si2765  1  0.378508  0.307453  0.577278  1
  Si  Si2766  1  0.378492  0.192568  0.442538  1
  Si  Si2767  1  0.449747  0.121544  0.404185  1
  Si  Si2768  1  0.307390  0.050251  0.423326  1
  Si  Si2769  1  0.378529  0.307466  0.334868  1
  Si  Si2770  1  0.378480  0.192556  0.469614  1
  Si  Si2771  1  0.449765  0.121548  0.507968  1
  Si  Si2772  1  0.307420  0.050265  0.488819  1
  Si  Si2773  1  0.449792  0.307451  0.558075  1
  Si  Si2774  1  0.449787  0.192590  0.423337  1
  Si  Si2775  1  0.307421  0.121523  0.442532  1
  Si  Si2776  1  0.378471  0.050275  0.404182  1
  Si  Si2777  1  0.121478  0.550221  0.404174  1
  Si  Si2778  1  0.192548  0.621446  0.442542  1
  Si  Si2779  1  0.250032  0.608184  0.504391  1
  Si  Si2780  1  0.250126  0.391875  0.504372  1
  Si  Si2781  1  0.250088  0.608116  0.407776  1
  Si  Si2782  1  0.250087  0.391847  0.407761  1
  Si  Si2783  1  0.179177  0.608131  0.523483  1
  Si  Si2784  1  0.179248  0.391848  0.523458  1
  Si  Si2785  1  0.320752  0.608146  0.388736  1
  Si  Si2786  1  0.320780  0.391892  0.388729  1
  Si  Si2787  1  0.249903  0.391872  0.542501  1
  Si  Si2788  1  0.249845  0.608131  0.542523  1
  Si  Si2789  1  0.249944  0.391860  0.369631  1
  Si  Si2790  1  0.249901  0.608139  0.369641  1
  Si  Si2791  1  0.320781  0.391883  0.523414  1
  Si  Si2792  1  0.320697  0.608165  0.523429  1
  Si  Si2793  1  0.179249  0.391835  0.388663  1
  Si  Si2794  1  0.179240  0.608139  0.388680  1
  Si  Si2795  1  0.050168  0.621476  0.507976  1
  Si  Si2796  1  0.192544  0.550250  0.488828  1
  Si  Si2797  1  0.050206  0.378515  0.507958  1
  Si  Si2798  1  0.192591  0.449778  0.488813  1
  Si  Si2799  1  0.050236  0.621519  0.404185  1
  Si  Si2800  1  0.192529  0.550207  0.423327  1
  Si  Si2801  1  0.050237  0.378475  0.404170  1
  Si  Si2802  1  0.192530  0.449736  0.423318  1
  Si  Si2803  1  0.192575  0.621505  0.469619  1
  Si  Si2804  1  0.121464  0.550227  0.507972  1
  Si  Si2805  1  0.192588  0.378508  0.469606  1
  Si  Si2806  1  0.121506  0.449755  0.507956  1
  Si  Si2807  1  0.307434  0.621530  0.334876  1
  Si  Si2808  1  0.378498  0.550268  0.373226  1
  Si  Si2809  1  0.307465  0.378520  0.334862  1
  Si  Si2810  1  0.378513  0.449798  0.373224  1
  Si  Si2811  1  0.449795  0.378512  0.538926  1
  Si  Si2812  1  0.307426  0.449766  0.558066  1
  Si  Si2813  1  0.449696  0.621529  0.538927  1
  Si  Si2814  1  0.307395  0.550236  0.558080  1
  Si  Si2815  1  0.449792  0.378536  0.373227  1
  Si  Si2816  1  0.307463  0.449777  0.354072  1
  Si  Si2817  1  0.449755  0.621553  0.373228  1
  Si  Si2818  1  0.307432  0.550248  0.354078  1
  Si  Si2819  1  0.307437  0.378498  0.577273  1
  Si  Si2820  1  0.378513  0.449775  0.538924  1
  Si  Si2821  1  0.307414  0.621507  0.577287  1
  Si  Si2822  1  0.378442  0.550245  0.538926  1
  Si  Si2823  1  0.192554  0.378487  0.442530  1
  Si  Si2824  1  0.121499  0.449751  0.404161  1
  Si  Si2825  1  0.050264  0.692573  0.423335  1
  Si  Si2826  1  0.121499  0.949792  0.538931  1
  Si  Si2827  1  0.192547  0.878486  0.577277  1
  Si  Si2828  1  0.179216  0.750109  0.485225  1
  Si  Si2829  1  0.108060  0.679223  0.523480  1
  Si  Si2830  1  0.179246  0.749907  0.350481  1
  Si  Si2831  1  0.108153  0.820758  0.388738  1
  Si  Si2832  1  0.250100  0.891886  0.369635  1
  Si  Si2833  1  0.179279  0.750054  0.426947  1
  Si  Si2834  1  0.108151  0.679259  0.388684  1
  Si  Si2835  1  0.179210  0.749891  0.561674  1
  Si  Si2836  1  0.108143  0.820769  0.523416  1
  Si  Si2837  1  0.250072  0.891860  0.542509  1
  Si  Si2838  1  0.108105  0.750071  0.504387  1
  Si  Si2839  1  0.250079  0.679269  0.485223  1
  Si  Si2840  1  0.108139  0.749911  0.369644  1
  Si  Si2841  1  0.250093  0.820761  0.350479  1
  Si  Si2842  1  0.179246  0.891877  0.388728  1
  Si  Si2843  1  0.391853  0.750136  0.369650  1
  Si  Si2844  1  0.249910  0.679260  0.350484  1
  Si  Si2845  1  0.391831  0.749945  0.504388  1
  Si  Si2846  1  0.249846  0.820797  0.485226  1
  Si  Si2847  1  0.320743  0.891911  0.523472  1
  Si  Si2848  1  0.320760  0.749853  0.426950  1
  Si  Si2849  1  0.391814  0.820757  0.388699  1
  Si  Si2850  1  0.249877  0.891853  0.407776  1
  Si  Si2851  1  0.320713  0.750093  0.561685  1
  Si  Si2852  1  0.391794  0.679280  0.523426  1
  Si  Si2853  1  0.320706  0.749954  0.485230  1
  Si  Si2854  1  0.391836  0.820792  0.523482  1
  Si  Si2855  1  0.249887  0.891932  0.504379  1
  Si  Si2856  1  0.320756  0.750115  0.350485  1
  Si  Si2857  1  0.391844  0.679265  0.388738  1
  Si  Si2858  1  0.391861  0.749888  0.407787  1
  Si  Si2859  1  0.249924  0.820718  0.426930  1
  Si  Si2860  1  0.320733  0.891886  0.388683  1
  Si  Si2861  1  0.391812  0.750126  0.542520  1
  Si  Si2862  1  0.249867  0.679236  0.561684  1
  Si  Si2863  1  0.108117  0.749919  0.542509  1
  Si  Si2864  1  0.250057  0.820745  0.561668  1
  Si  Si2865  1  0.179217  0.891907  0.523416  1
  Si  Si2866  1  0.108189  0.750100  0.407779  1
  Si  Si2867  1  0.250113  0.679186  0.426947  1
  Si  Si2868  1  0.121500  0.692548  0.469623  1
  Si  Si2869  1  0.121520  0.807420  0.334869  1
  Si  Si2870  1  0.050258  0.878492  0.373230  1
  Si  Si2871  1  0.192575  0.949769  0.354067  1
  Si  Si2872  1  0.121516  0.692532  0.442547  1
  Si  Si2873  1  0.121484  0.807432  0.577280  1
  Si  Si2874  1  0.050246  0.878501  0.538924  1
  Si  Si2875  1  0.192578  0.949776  0.558076  1
  Si  Si2876  1  0.050213  0.692532  0.488826  1
  Si  Si2877  1  0.050260  0.807444  0.354079  1
  Si  Si2878  1  0.192578  0.878480  0.334866  1
  Si  Si2879  1  0.121520  0.949770  0.373218  1
  Si  Si2880  1  0.449760  0.692630  0.354084  1
  Si  Si2881  1  0.449717  0.807491  0.488828  1
  Si  Si2882  1  0.307367  0.878517  0.469614  1
  Si  Si2883  1  0.378497  0.949814  0.507972  1
  Si  Si2884  1  0.378470  0.807442  0.442547  1
  Si  Si2885  1  0.449729  0.878524  0.404193  1
  Si  Si2886  1  0.307396  0.949779  0.423333  1
  Si  Si2887  1  0.378463  0.692575  0.577289  1
  Si  Si2888  1  0.378441  0.807475  0.469622  1
  Si  Si2889  1  0.449752  0.878530  0.507982  1
  Si  Si2890  1  0.307454  0.949795  0.488818  1
  Si  Si2891  1  0.378489  0.692591  0.334877  1
  Si  Si2892  1  0.449745  0.807463  0.423340  1
  Si  Si2893  1  0.307407  0.878497  0.442537  1
  Si  Si2894  1  0.378465  0.949802  0.404185  1
  Si  Si2895  1  0.449713  0.692581  0.558077  1
  Si  Si2896  1  0.050214  0.807440  0.558072  1
  Si  Si2897  1  0.621504  0.050266  0.404179  1
  Si  Si2898  1  0.679287  0.250059  0.485226  1
  Si  Si2899  1  0.608169  0.179227  0.523477  1
  Si  Si2900  1  0.750140  0.108104  0.504380  1
  Si  Si2901  1  0.679287  0.249950  0.350484  1
  Si  Si2902  1  0.608162  0.320800  0.388735  1
  Si  Si2903  1  0.679263  0.250109  0.426931  1
  Si  Si2904  1  0.608133  0.179276  0.388677  1
  Si  Si2905  1  0.750116  0.108171  0.407773  1
  Si  Si2906  1  0.679267  0.249905  0.561677  1
  Si  Si2907  1  0.608179  0.320746  0.523423  1
  Si  Si2908  1  0.608167  0.250083  0.504385  1
  Si  Si2909  1  0.750144  0.179216  0.485220  1
  Si  Si2910  1  0.679266  0.108112  0.523468  1
  Si  Si2911  1  0.608167  0.249950  0.369642  1
  Si  Si2912  1  0.750132  0.320806  0.350482  1
  Si  Si2913  1  0.891914  0.250148  0.369626  1
  Si  Si2914  1  0.749944  0.179297  0.350484  1
  Si  Si2915  1  0.820792  0.108185  0.388737  1
  Si  Si2916  1  0.891854  0.249913  0.504377  1
  Si  Si2917  1  0.749913  0.320744  0.485219  1
  Si  Si2918  1  0.820769  0.249942  0.426924  1
  Si  Si2919  1  0.891861  0.320801  0.388668  1
  Si  Si2920  1  0.820722  0.250048  0.561664  1
  Si  Si2921  1  0.891853  0.179247  0.523415  1
  Si  Si2922  1  0.749895  0.108070  0.542516  1
  Si  Si2923  1  0.820771  0.249900  0.485208  1
  Si  Si2924  1  0.891854  0.320769  0.523468  1
  Si  Si2925  1  0.820792  0.250150  0.350468  1
  Si  Si2926  1  0.891890  0.179300  0.388719  1
  Si  Si2927  1  0.749929  0.108191  0.369645  1
  Si  Si2928  1  0.891872  0.249951  0.407760  1
  Si  Si2929  1  0.749905  0.320780  0.426925  1
  Si  Si2930  1  0.891846  0.250104  0.542506  1
  Si  Si2931  1  0.749872  0.179197  0.561671  1
  Si  Si2932  1  0.820768  0.108118  0.523428  1
  Si  Si2933  1  0.608163  0.249891  0.542515  1
  Si  Si2934  1  0.750118  0.320755  0.561675  1
  Si  Si2935  1  0.608148  0.250123  0.407770  1
  Si  Si2936  1  0.750128  0.179271  0.426936  1
  Si  Si2937  1  0.679255  0.108185  0.388682  1
  Si  Si2938  1  0.621534  0.192561  0.469616  1
  Si  Si2939  1  0.550242  0.121525  0.507969  1
  Si  Si2940  1  0.692583  0.050236  0.488817  1
  Si  Si2941  1  0.621542  0.307457  0.334874  1
  Si  Si2942  1  0.621535  0.192583  0.442539  1
  Si  Si2943  1  0.550228  0.121534  0.404179  1
  Si  Si2944  1  0.692567  0.050263  0.423327  1
  Si  Si2945  1  0.621543  0.307434  0.577286  1
  Si  Si2946  1  0.550250  0.192585  0.488820  1
  Si  Si2947  1  0.692596  0.121506  0.469612  1
  Si  Si2948  1  0.621502  0.050244  0.507962  1
  Si  Si2949  1  0.550262  0.307471  0.354080  1
  Si  Si2950  1  0.949779  0.192595  0.354062  1
  Si  Si2951  1  0.807418  0.121524  0.334874  1
  Si  Si2952  1  0.878502  0.050274  0.373227  1
  Si  Si2953  1  0.949745  0.307446  0.488814  1
  Si  Si2954  1  0.878496  0.307486  0.442528  1
  Si  Si2955  1  0.878450  0.192521  0.577273  1
  Si  Si2956  1  0.949765  0.121516  0.538919  1
  Si  Si2957  1  0.807439  0.050196  0.558080  1
  Si  Si2958  1  0.878482  0.307459  0.469605  1
  Si  Si2959  1  0.878482  0.192577  0.334861  1
  Si  Si2960  1  0.949770  0.121547  0.373213  1
  Si  Si2961  1  0.807422  0.050263  0.354082  1
  Si  Si2962  1  0.949774  0.307473  0.423323  1
  Si  Si2963  1  0.949735  0.192569  0.558070  1
  Si  Si2964  1  0.807383  0.121472  0.577285  1
  Si  Si2965  1  0.878512  0.050229  0.538934  1
  Si  Si2966  1  0.550271  0.307421  0.558079  1
  Si  Si2967  1  0.550264  0.192577  0.423332  1
  Si  Si2968  1  0.692594  0.121523  0.442536  1
  Si  Si2969  1  0.621448  0.550230  0.538920  1
  Si  Si2970  1  0.621528  0.449759  0.538928  1
  Si  Si2971  1  0.692520  0.621526  0.577271  1
  Si  Si2972  1  0.750100  0.608201  0.369623  1
  Si  Si2973  1  0.750100  0.391933  0.369637  1
  Si  Si2974  1  0.750007  0.608163  0.542501  1
  Si  Si2975  1  0.750130  0.391881  0.542519  1
  Si  Si2976  1  0.679262  0.608205  0.388720  1
  Si  Si2977  1  0.679245  0.391930  0.388731  1
  Si  Si2978  1  0.820659  0.608192  0.523459  1
  Si  Si2979  1  0.820766  0.391892  0.523472  1
  Si  Si2980  1  0.749906  0.391909  0.407770  1
  Si  Si2981  1  0.749935  0.608197  0.407757  1
  Si  Si2982  1  0.749911  0.391856  0.504379  1
  Si  Si2983  1  0.749805  0.608182  0.504365  1
  Si  Si2984  1  0.820760  0.391911  0.388677  1
  Si  Si2985  1  0.820777  0.608191  0.388660  1
  Si  Si2986  1  0.679276  0.391862  0.523426  1
  Si  Si2987  1  0.679151  0.608142  0.523408  1
  Si  Si2988  1  0.550233  0.621569  0.373228  1
  Si  Si2989  1  0.692553  0.550295  0.354067  1
  Si  Si2990  1  0.550269  0.378535  0.373226  1
  Si  Si2991  1  0.692571  0.449822  0.354073  1
  Si  Si2992  1  0.550173  0.621499  0.538917  1
  Si  Si2993  1  0.692516  0.550243  0.558067  1
  Si  Si2994  1  0.550273  0.378475  0.538929  1
  Si  Si2995  1  0.692583  0.449770  0.558079  1
  Si  Si2996  1  0.692549  0.621559  0.334859  1
  Si  Si2997  1  0.621506  0.550301  0.373220  1
  Si  Si2998  1  0.692593  0.378523  0.334874  1
  Si  Si2999  1  0.621514  0.449831  0.373224  1
  Si  Si3000  1  0.807398  0.621537  0.469605  1
  Si  Si3001  1  0.878398  0.550271  0.507959  1
  Si  Si3002  1  0.807406  0.378501  0.469610  1
  Si  Si3003  1  0.878460  0.449800  0.507957  1
  Si  Si3004  1  0.949760  0.378533  0.404175  1
  Si  Si3005  1  0.807435  0.449813  0.423331  1
  Si  Si3006  1  0.949759  0.621563  0.404180  1
  Si  Si3007  1  0.807445  0.550285  0.423320  1
  Si  Si3008  1  0.949727  0.378521  0.507958  1
  Si  Si3009  1  0.807385  0.449788  0.488811  1
  Si  Si3010  1  0.949689  0.621523  0.507968  1
  Si  Si3011  1  0.807336  0.550261  0.488810  1
  Si  Si3012  1  0.807419  0.378525  0.442532  1
  Si  Si3013  1  0.878499  0.449813  0.404182  1
  Si  Si3014  1  0.807467  0.621547  0.442528  1
  Si  Si3015  1  0.878497  0.550284  0.404168  1
  Si  Si3016  1  0.692603  0.378492  0.577284  1
  Si  Si3017  1  0.807437  0.949791  0.354077  1
  Si  Si3018  1  0.550189  0.692561  0.558065  1
  Si  Si3019  1  0.878466  0.692587  0.469613  1
  Si  Si3020  1  0.878494  0.949758  0.538923  1
  Si  Si3021  1  0.621497  0.949794  0.404177  1
  Si  Si3022  1  0.692566  0.878519  0.442528  1
  Si  Si3023  1  0.550221  0.807475  0.423325  1
  Si  Si3024  1  0.949786  0.692623  0.423328  1
  Si  Si3025  1  0.807408  0.878465  0.577282  1
  Si  Si3026  1  0.878503  0.807454  0.334864  1
  Si  Si3027  1  0.949735  0.807434  0.558067  1
  Si  Si3028  1  0.949781  0.878536  0.373218  1
  Si  Si3029  1  0.679230  0.750150  0.350462  1
  Si  Si3030  1  0.608154  0.679307  0.388727  1
  Si  Si3031  1  0.679192  0.749929  0.485203  1
  Si  Si3032  1  0.608146  0.820738  0.523461  1
  Si  Si3033  1  0.750081  0.891872  0.504374  1
  Si  Si3034  1  0.679175  0.750118  0.561671  1
  Si  Si3035  1  0.608050  0.679249  0.523409  1
  Si  Si3036  1  0.679265  0.749921  0.426930  1
  Si  Si3037  1  0.608136  0.820797  0.388678  1
  Si  Si3038  1  0.750117  0.891884  0.407770  1
  Si  Si3039  1  0.608153  0.750158  0.369634  1
  Si  Si3040  1  0.750085  0.679302  0.350460  1
  Si  Si3041  1  0.608087  0.749898  0.504366  1
  Si  Si3042  1  0.750050  0.820774  0.485211  1
  Si  Si3043  1  0.679231  0.891865  0.523470  1
  Si  Si3044  1  0.891827  0.750135  0.504371  1
  Si  Si3045  1  0.749856  0.679285  0.485204  1
  Si  Si3046  1  0.891885  0.749949  0.369630  1
  Si  Si3047  1  0.749905  0.820786  0.350473  1
  Si  Si3048  1  0.820771  0.891895  0.388727  1
  Si  Si3049  1  0.820695  0.749918  0.561667  1
  Si  Si3050  1  0.891849  0.820788  0.523412  1
  Si  Si3051  1  0.749882  0.891858  0.542513  1
  Si  Si3052  1  0.820791  0.750144  0.426932  1
  Si  Si3053  1  0.891873  0.679306  0.388672  1
  Si  Si3054  1  0.820760  0.749939  0.350472  1
  Si  Si3055  1  0.891883  0.820797  0.388723  1
  Si  Si3056  1  0.749908  0.891882  0.369636  1
  Si  Si3057  1  0.820714  0.750128  0.485210  1
  Si  Si3058  1  0.891780  0.679283  0.523464  1
  Si  Si3059  1  0.891806  0.749938  0.542505  1
  Si  Si3060  1  0.749839  0.820766  0.561678  1
  Si  Si3061  1  0.820731  0.891881  0.523418  1
  Si  Si3062  1  0.891887  0.750153  0.407766  1
  Si  Si3063  1  0.749944  0.679288  0.426922  1
  Si  Si3064  1  0.608143  0.749945  0.407771  1
  Si  Si3065  1  0.750114  0.820776  0.426931  1
  Si  Si3066  1  0.679254  0.891889  0.388679  1
  Si  Si3067  1  0.608085  0.750092  0.542504  1
  Si  Si3068  1  0.750030  0.679270  0.561662  1
  Si  Si3069  1  0.621481  0.692609  0.334863  1
  Si  Si3070  1  0.621454  0.807475  0.469603  1
  Si  Si3071  1  0.550229  0.878500  0.507967  1
  Si  Si3072  1  0.692544  0.949769  0.488815  1
  Si  Si3073  1  0.621449  0.692572  0.577275  1
  Si  Si3074  1  0.621509  0.807459  0.442527  1
  Si  Si3075  1  0.550211  0.878535  0.404177  1
  Si  Si3076  1  0.692569  0.949792  0.423324  1
  Si  Si3077  1  0.550236  0.692625  0.354078  1
  Si  Si3078  1  0.550193  0.807465  0.488813  1
  Si  Si3079  1  0.692530  0.878517  0.469605  1
  Si  Si3080  1  0.621492  0.949774  0.507967  1
  Si  Si3081  1  0.949737  0.692583  0.488820  1
  Si  Si3082  1  0.949783  0.807479  0.354068  1
  Si  Si3083  1  0.807450  0.878519  0.334871  1
  Si  Si3084  1  0.878507  0.949804  0.373224  1
  Si  Si3085  1  0.878464  0.807403  0.577275  1
  Si  Si3086  1  0.949769  0.878494  0.538919  1
  Si  Si3087  1  0.807443  0.949727  0.558074  1
  Si  Si3088  1  0.878522  0.692608  0.442537  1
  Si  Si3089  1  0.121510  0.050263  0.808427  1
  Si  Si3090  1  0.192602  0.121548  0.846764  1
  Si  Si3091  1  0.050212  0.192603  0.827564  1
  Si  Si3092  1  0.050252  0.307433  0.692811  1
  Si  Si3093  1  0.179285  0.250113  0.619958  1
  Si  Si3094  1  0.108138  0.179248  0.658206  1
  Si  Si3095  1  0.250121  0.108141  0.639115  1
  Si  Si3096  1  0.179247  0.249942  0.754711  1
  Si  Si3097  1  0.108096  0.320788  0.792956  1
  Si  Si3098  1  0.179230  0.250132  0.831151  1
  Si  Si3099  1  0.108131  0.179274  0.792909  1
  Si  Si3100  1  0.250108  0.108163  0.812001  1
  Si  Si3101  1  0.179245  0.249905  0.696414  1
  Si  Si3102  1  0.108138  0.320734  0.658155  1
  Si  Si3103  1  0.108145  0.250094  0.639111  1
  Si  Si3104  1  0.250148  0.179274  0.619961  1
  Si  Si3105  1  0.179246  0.108145  0.658203  1
  Si  Si3106  1  0.108114  0.249922  0.773867  1
  Si  Si3107  1  0.250118  0.320770  0.754699  1
  Si  Si3108  1  0.391871  0.250136  0.773863  1
  Si  Si3109  1  0.249867  0.179248  0.754707  1
  Si  Si3110  1  0.320743  0.108198  0.792954  1
  Si  Si3111  1  0.391873  0.249965  0.639134  1
  Si  Si3112  1  0.249930  0.320779  0.619952  1
  Si  Si3113  1  0.320762  0.249948  0.831157  1
  Si  Si3114  1  0.391900  0.320791  0.792904  1
  Si  Si3115  1  0.320771  0.250121  0.696422  1
  Si  Si3116  1  0.391845  0.179308  0.658175  1
  Si  Si3117  1  0.249876  0.108159  0.677252  1
  Si  Si3118  1  0.320795  0.249941  0.619964  1
  Si  Si3119  1  0.391909  0.320811  0.658228  1
  Si  Si3120  1  0.320737  0.250079  0.754708  1
  Si  Si3121  1  0.391862  0.179292  0.792958  1
  Si  Si3122  1  0.249865  0.108142  0.773867  1
  Si  Si3123  1  0.391882  0.249946  0.811998  1
  Si  Si3124  1  0.249894  0.320781  0.831154  1
  Si  Si3125  1  0.391907  0.250155  0.677268  1
  Si  Si3126  1  0.249921  0.179272  0.696411  1
  Si  Si3127  1  0.320752  0.108189  0.658164  1
  Si  Si3128  1  0.108141  0.249891  0.677250  1
  Si  Si3129  1  0.250095  0.320756  0.696414  1
  Si  Si3130  1  0.108087  0.250142  0.811998  1
  Si  Si3131  1  0.250098  0.179300  0.831154  1
  Si  Si3132  1  0.179229  0.108159  0.792915  1
  Si  Si3133  1  0.121559  0.192586  0.604349  1
  Si  Si3134  1  0.050247  0.121512  0.642697  1
  Si  Si3135  1  0.192596  0.050242  0.623552  1
  Si  Si3136  1  0.121518  0.307460  0.739100  1
  Si  Si3137  1  0.121523  0.192586  0.846760  1
  Si  Si3138  1  0.050242  0.121536  0.808417  1
  Si  Si3139  1  0.192608  0.050248  0.827566  1
  Si  Si3140  1  0.121507  0.307417  0.712023  1
  Si  Si3141  1  0.050256  0.192566  0.623547  1
  Si  Si3142  1  0.192629  0.121540  0.604353  1
  Si  Si3143  1  0.121516  0.050241  0.642696  1
  Si  Si3144  1  0.050222  0.307442  0.758301  1
  Si  Si3145  1  0.449771  0.192597  0.758304  1
  Si  Si3146  1  0.307397  0.121524  0.739098  1
  Si  Si3147  1  0.378488  0.050286  0.777454  1
  Si  Si3148  1  0.449783  0.307470  0.623568  1
  Si  Si3149  1  0.378508  0.307453  0.846767  1
  Si  Si3150  1  0.378492  0.192568  0.712026  1
  Si  Si3151  1  0.449747  0.121544  0.673673  1
  Si  Si3152  1  0.307390  0.050251  0.692815  1
  Si  Si3153  1  0.378529  0.307466  0.604356  1
  Si  Si3154  1  0.378480  0.192556  0.739102  1
  Si  Si3155  1  0.449765  0.121548  0.777456  1
  Si  Si3156  1  0.307420  0.050265  0.758307  1
  Si  Si3157  1  0.449792  0.307451  0.827563  1
  Si  Si3158  1  0.449787  0.192590  0.692825  1
  Si  Si3159  1  0.307421  0.121523  0.712020  1
  Si  Si3160  1  0.378471  0.050275  0.673670  1
  Si  Si3161  1  0.121478  0.550221  0.673663  1
  Si  Si3162  1  0.192548  0.621446  0.712030  1
  Si  Si3163  1  0.250032  0.608184  0.773879  1
  Si  Si3164  1  0.250126  0.391875  0.773860  1
  Si  Si3165  1  0.250088  0.608116  0.677264  1
  Si  Si3166  1  0.250087  0.391847  0.677249  1
  Si  Si3167  1  0.179177  0.608131  0.792971  1
  Si  Si3168  1  0.179248  0.391848  0.792947  1
  Si  Si3169  1  0.320752  0.608146  0.658224  1
  Si  Si3170  1  0.320780  0.391892  0.658217  1
  Si  Si3171  1  0.249903  0.391872  0.811989  1
  Si  Si3172  1  0.249845  0.608131  0.812011  1
  Si  Si3173  1  0.249944  0.391860  0.639120  1
  Si  Si3174  1  0.249901  0.608139  0.639129  1
  Si  Si3175  1  0.320781  0.391883  0.792902  1
  Si  Si3176  1  0.320697  0.608165  0.792917  1
  Si  Si3177  1  0.179249  0.391835  0.658151  1
  Si  Si3178  1  0.179240  0.608139  0.658169  1
  Si  Si3179  1  0.050168  0.621476  0.777464  1
  Si  Si3180  1  0.192544  0.550250  0.758316  1
  Si  Si3181  1  0.050206  0.378515  0.777446  1
  Si  Si3182  1  0.192591  0.449778  0.758301  1
  Si  Si3183  1  0.050236  0.621519  0.673673  1
  Si  Si3184  1  0.192529  0.550207  0.692815  1
  Si  Si3185  1  0.050237  0.378475  0.673658  1
  Si  Si3186  1  0.192530  0.449736  0.692806  1
  Si  Si3187  1  0.192575  0.621505  0.739107  1
  Si  Si3188  1  0.121464  0.550227  0.777460  1
  Si  Si3189  1  0.192588  0.378508  0.739095  1
  Si  Si3190  1  0.121506  0.449755  0.777444  1
  Si  Si3191  1  0.307434  0.621530  0.604364  1
  Si  Si3192  1  0.378498  0.550268  0.642715  1
  Si  Si3193  1  0.307465  0.378520  0.604350  1
  Si  Si3194  1  0.378513  0.449798  0.642712  1
  Si  Si3195  1  0.449795  0.378512  0.808414  1
  Si  Si3196  1  0.307426  0.449766  0.827554  1
  Si  Si3197  1  0.449696  0.621529  0.808415  1
  Si  Si3198  1  0.307395  0.550236  0.827568  1
  Si  Si3199  1  0.449792  0.378536  0.642715  1
  Si  Si3200  1  0.307463  0.449777  0.623560  1
  Si  Si3201  1  0.449755  0.621553  0.642716  1
  Si  Si3202  1  0.307432  0.550248  0.623566  1
  Si  Si3203  1  0.307437  0.378498  0.846761  1
  Si  Si3204  1  0.378513  0.449775  0.808412  1
  Si  Si3205  1  0.307414  0.621507  0.846775  1
  Si  Si3206  1  0.378442  0.550245  0.808414  1
  Si  Si3207  1  0.192554  0.378487  0.712018  1
  Si  Si3208  1  0.121499  0.449751  0.673649  1
  Si  Si3209  1  0.050264  0.692573  0.692823  1
  Si  Si3210  1  0.121499  0.949792  0.808419  1
  Si  Si3211  1  0.192547  0.878486  0.846765  1
  Si  Si3212  1  0.179216  0.750109  0.754714  1
  Si  Si3213  1  0.108060  0.679223  0.792968  1
  Si  Si3214  1  0.179246  0.749907  0.619969  1
  Si  Si3215  1  0.108153  0.820758  0.658226  1
  Si  Si3216  1  0.250100  0.891886  0.639123  1
  Si  Si3217  1  0.179279  0.750054  0.696435  1
  Si  Si3218  1  0.108151  0.679259  0.658173  1
  Si  Si3219  1  0.179210  0.749891  0.831162  1
  Si  Si3220  1  0.108143  0.820769  0.792904  1
  Si  Si3221  1  0.250072  0.891860  0.811998  1
  Si  Si3222  1  0.108105  0.750071  0.773875  1
  Si  Si3223  1  0.250079  0.679269  0.754711  1
  Si  Si3224  1  0.108139  0.749911  0.639132  1
  Si  Si3225  1  0.250093  0.820761  0.619967  1
  Si  Si3226  1  0.179246  0.891877  0.658217  1
  Si  Si3227  1  0.391853  0.750136  0.639138  1
  Si  Si3228  1  0.249910  0.679260  0.619972  1
  Si  Si3229  1  0.391831  0.749945  0.773876  1
  Si  Si3230  1  0.249846  0.820797  0.754715  1
  Si  Si3231  1  0.320743  0.891911  0.792960  1
  Si  Si3232  1  0.320760  0.749853  0.696438  1
  Si  Si3233  1  0.391814  0.820757  0.658187  1
  Si  Si3234  1  0.249877  0.891853  0.677264  1
  Si  Si3235  1  0.320713  0.750093  0.831173  1
  Si  Si3236  1  0.391794  0.679280  0.792914  1
  Si  Si3237  1  0.320706  0.749954  0.754718  1
  Si  Si3238  1  0.391836  0.820792  0.792970  1
  Si  Si3239  1  0.249887  0.891932  0.773867  1
  Si  Si3240  1  0.320756  0.750115  0.619973  1
  Si  Si3241  1  0.391844  0.679265  0.658226  1
  Si  Si3242  1  0.391861  0.749888  0.677275  1
  Si  Si3243  1  0.249924  0.820718  0.696418  1
  Si  Si3244  1  0.320733  0.891886  0.658171  1
  Si  Si3245  1  0.391812  0.750126  0.812008  1
  Si  Si3246  1  0.249867  0.679236  0.831172  1
  Si  Si3247  1  0.108117  0.749919  0.811997  1
  Si  Si3248  1  0.250057  0.820745  0.831156  1
  Si  Si3249  1  0.179217  0.891907  0.792904  1
  Si  Si3250  1  0.108189  0.750100  0.677267  1
  Si  Si3251  1  0.250113  0.679186  0.696435  1
  Si  Si3252  1  0.121500  0.692548  0.739111  1
  Si  Si3253  1  0.121520  0.807420  0.604357  1
  Si  Si3254  1  0.050258  0.878492  0.642719  1
  Si  Si3255  1  0.192575  0.949769  0.623556  1
  Si  Si3256  1  0.121516  0.692532  0.712035  1
  Si  Si3257  1  0.121484  0.807432  0.846768  1
  Si  Si3258  1  0.050246  0.878501  0.808413  1
  Si  Si3259  1  0.192578  0.949776  0.827564  1
  Si  Si3260  1  0.050213  0.692532  0.758314  1
  Si  Si3261  1  0.050260  0.807444  0.623567  1
  Si  Si3262  1  0.192578  0.878480  0.604354  1
  Si  Si3263  1  0.121520  0.949770  0.642706  1
  Si  Si3264  1  0.449760  0.692630  0.623573  1
  Si  Si3265  1  0.449717  0.807491  0.758316  1
  Si  Si3266  1  0.307367  0.878517  0.739102  1
  Si  Si3267  1  0.378497  0.949814  0.777460  1
  Si  Si3268  1  0.378470  0.807442  0.712035  1
  Si  Si3269  1  0.449729  0.878524  0.673681  1
  Si  Si3270  1  0.307396  0.949779  0.692822  1
  Si  Si3271  1  0.378463  0.692575  0.846777  1
  Si  Si3272  1  0.378441  0.807475  0.739110  1
  Si  Si3273  1  0.449752  0.878530  0.777470  1
  Si  Si3274  1  0.307454  0.949795  0.758306  1
  Si  Si3275  1  0.378489  0.692591  0.604366  1
  Si  Si3276  1  0.449745  0.807463  0.692829  1
  Si  Si3277  1  0.307407  0.878497  0.712025  1
  Si  Si3278  1  0.378465  0.949802  0.673673  1
  Si  Si3279  1  0.449713  0.692581  0.827565  1
  Si  Si3280  1  0.050214  0.807440  0.827560  1
  Si  Si3281  1  0.621504  0.050266  0.673667  1
  Si  Si3282  1  0.679287  0.250059  0.754714  1
  Si  Si3283  1  0.608169  0.179227  0.792965  1
  Si  Si3284  1  0.750140  0.108104  0.773868  1
  Si  Si3285  1  0.679287  0.249950  0.619972  1
  Si  Si3286  1  0.608162  0.320800  0.658223  1
  Si  Si3287  1  0.679263  0.250109  0.696419  1
  Si  Si3288  1  0.608133  0.179276  0.658165  1
  Si  Si3289  1  0.750116  0.108171  0.677262  1
  Si  Si3290  1  0.679267  0.249905  0.831165  1
  Si  Si3291  1  0.608179  0.320746  0.792911  1
  Si  Si3292  1  0.608167  0.250083  0.773873  1
  Si  Si3293  1  0.750144  0.179216  0.754708  1
  Si  Si3294  1  0.679266  0.108112  0.792956  1
  Si  Si3295  1  0.608167  0.249950  0.639130  1
  Si  Si3296  1  0.750132  0.320806  0.619970  1
  Si  Si3297  1  0.891914  0.250148  0.639114  1
  Si  Si3298  1  0.749944  0.179297  0.619972  1
  Si  Si3299  1  0.820792  0.108185  0.658225  1
  Si  Si3300  1  0.891854  0.249913  0.773865  1
  Si  Si3301  1  0.749913  0.320744  0.754707  1
  Si  Si3302  1  0.820769  0.249942  0.696412  1
  Si  Si3303  1  0.891861  0.320801  0.658156  1
  Si  Si3304  1  0.820722  0.250048  0.831152  1
  Si  Si3305  1  0.891853  0.179247  0.792903  1
  Si  Si3306  1  0.749895  0.108070  0.812004  1
  Si  Si3307  1  0.820771  0.249900  0.754696  1
  Si  Si3308  1  0.891854  0.320769  0.792956  1
  Si  Si3309  1  0.820792  0.250150  0.619956  1
  Si  Si3310  1  0.891890  0.179300  0.658207  1
  Si  Si3311  1  0.749929  0.108191  0.639134  1
  Si  Si3312  1  0.891872  0.249951  0.677248  1
  Si  Si3313  1  0.749905  0.320780  0.696413  1
  Si  Si3314  1  0.891846  0.250104  0.811995  1
  Si  Si3315  1  0.749872  0.179197  0.831160  1
  Si  Si3316  1  0.820768  0.108118  0.792916  1
  Si  Si3317  1  0.608163  0.249891  0.812003  1
  Si  Si3318  1  0.750118  0.320755  0.831164  1
  Si  Si3319  1  0.608148  0.250123  0.677259  1
  Si  Si3320  1  0.750128  0.179271  0.696424  1
  Si  Si3321  1  0.679255  0.108185  0.658170  1
  Si  Si3322  1  0.621534  0.192561  0.739105  1
  Si  Si3323  1  0.550242  0.121525  0.777457  1
  Si  Si3324  1  0.692583  0.050236  0.758306  1
  Si  Si3325  1  0.621542  0.307457  0.604363  1
  Si  Si3326  1  0.621535  0.192583  0.712027  1
  Si  Si3327  1  0.550228  0.121534  0.673667  1
  Si  Si3328  1  0.692567  0.050263  0.692816  1
  Si  Si3329  1  0.621543  0.307434  0.846774  1
  Si  Si3330  1  0.550250  0.192585  0.758308  1
  Si  Si3331  1  0.692596  0.121506  0.739100  1
  Si  Si3332  1  0.621502  0.050244  0.777450  1
  Si  Si3333  1  0.550262  0.307471  0.623568  1
  Si  Si3334  1  0.949779  0.192595  0.623550  1
  Si  Si3335  1  0.807418  0.121524  0.604362  1
  Si  Si3336  1  0.878502  0.050274  0.642715  1
  Si  Si3337  1  0.949745  0.307446  0.758302  1
  Si  Si3338  1  0.878496  0.307486  0.712016  1
  Si  Si3339  1  0.878450  0.192521  0.846761  1
  Si  Si3340  1  0.949765  0.121516  0.808407  1
  Si  Si3341  1  0.807439  0.050196  0.827569  1
  Si  Si3342  1  0.878482  0.307459  0.739093  1
  Si  Si3343  1  0.878482  0.192577  0.604349  1
  Si  Si3344  1  0.949770  0.121547  0.642701  1
  Si  Si3345  1  0.807422  0.050263  0.623570  1
  Si  Si3346  1  0.949774  0.307473  0.692811  1
  Si  Si3347  1  0.949735  0.192569  0.827558  1
  Si  Si3348  1  0.807383  0.121472  0.846773  1
  Si  Si3349  1  0.878512  0.050229  0.808422  1
  Si  Si3350  1  0.550271  0.307421  0.827567  1
  Si  Si3351  1  0.550264  0.192577  0.692820  1
  Si  Si3352  1  0.692594  0.121523  0.712024  1
  Si  Si3353  1  0.621448  0.550230  0.808408  1
  Si  Si3354  1  0.621528  0.449759  0.808417  1
  Si  Si3355  1  0.692520  0.621526  0.846759  1
  Si  Si3356  1  0.750100  0.608201  0.639111  1
  Si  Si3357  1  0.750100  0.391933  0.639125  1
  Si  Si3358  1  0.750007  0.608163  0.811989  1
  Si  Si3359  1  0.750130  0.391881  0.812008  1
  Si  Si3360  1  0.679262  0.608205  0.658208  1
  Si  Si3361  1  0.679245  0.391930  0.658219  1
  Si  Si3362  1  0.820659  0.608192  0.792947  1
  Si  Si3363  1  0.820766  0.391892  0.792960  1
  Si  Si3364  1  0.749906  0.391909  0.677259  1
  Si  Si3365  1  0.749935  0.608197  0.677245  1
  Si  Si3366  1  0.749911  0.391856  0.773867  1
  Si  Si3367  1  0.749805  0.608182  0.773853  1
  Si  Si3368  1  0.820760  0.391911  0.658165  1
  Si  Si3369  1  0.820777  0.608191  0.658148  1
  Si  Si3370  1  0.679276  0.391862  0.792914  1
  Si  Si3371  1  0.679151  0.608142  0.792896  1
  Si  Si3372  1  0.550233  0.621569  0.642716  1
  Si  Si3373  1  0.692553  0.550295  0.623555  1
  Si  Si3374  1  0.550269  0.378535  0.642715  1
  Si  Si3375  1  0.692571  0.449822  0.623561  1
  Si  Si3376  1  0.550173  0.621499  0.808405  1
  Si  Si3377  1  0.692516  0.550243  0.827556  1
  Si  Si3378  1  0.550273  0.378475  0.808417  1
  Si  Si3379  1  0.692583  0.449770  0.827567  1
  Si  Si3380  1  0.692549  0.621559  0.604348  1
  Si  Si3381  1  0.621506  0.550301  0.642708  1
  Si  Si3382  1  0.692593  0.378523  0.604362  1
  Si  Si3383  1  0.621514  0.449831  0.642712  1
  Si  Si3384  1  0.807398  0.621537  0.739093  1
  Si  Si3385  1  0.878398  0.550271  0.777447  1
  Si  Si3386  1  0.807406  0.378501  0.739098  1
  Si  Si3387  1  0.878460  0.449800  0.777445  1
  Si  Si3388  1  0.949760  0.378533  0.673663  1
  Si  Si3389  1  0.807435  0.449813  0.692819  1
  Si  Si3390  1  0.949759  0.621563  0.673668  1
  Si  Si3391  1  0.807445  0.550285  0.692808  1
  Si  Si3392  1  0.949727  0.378521  0.777446  1
  Si  Si3393  1  0.807385  0.449788  0.758299  1
  Si  Si3394  1  0.949689  0.621523  0.777456  1
  Si  Si3395  1  0.807336  0.550261  0.758298  1
  Si  Si3396  1  0.807419  0.378525  0.712020  1
  Si  Si3397  1  0.878499  0.449813  0.673670  1
  Si  Si3398  1  0.807467  0.621547  0.712016  1
  Si  Si3399  1  0.878497  0.550284  0.673656  1
  Si  Si3400  1  0.692603  0.378492  0.846773  1
  Si  Si3401  1  0.807437  0.949791  0.623565  1
  Si  Si3402  1  0.550189  0.692561  0.827553  1
  Si  Si3403  1  0.878466  0.692587  0.739101  1
  Si  Si3404  1  0.878494  0.949758  0.808411  1
  Si  Si3405  1  0.621497  0.949794  0.673666  1
  Si  Si3406  1  0.692566  0.878519  0.712017  1
  Si  Si3407  1  0.550221  0.807475  0.692813  1
  Si  Si3408  1  0.949786  0.692623  0.692816  1
  Si  Si3409  1  0.807408  0.878465  0.846770  1
  Si  Si3410  1  0.878503  0.807454  0.604352  1
  Si  Si3411  1  0.949735  0.807434  0.827556  1
  Si  Si3412  1  0.949781  0.878536  0.642706  1
  Si  Si3413  1  0.679230  0.750150  0.619951  1
  Si  Si3414  1  0.608154  0.679307  0.658215  1
  Si  Si3415  1  0.679192  0.749929  0.754691  1
  Si  Si3416  1  0.608146  0.820738  0.792950  1
  Si  Si3417  1  0.750081  0.891872  0.773863  1
  Si  Si3418  1  0.679175  0.750118  0.831159  1
  Si  Si3419  1  0.608050  0.679249  0.792897  1
  Si  Si3420  1  0.679265  0.749921  0.696418  1
  Si  Si3421  1  0.608136  0.820797  0.658166  1
  Si  Si3422  1  0.750117  0.891884  0.677258  1
  Si  Si3423  1  0.608153  0.750158  0.639122  1
  Si  Si3424  1  0.750085  0.679302  0.619948  1
  Si  Si3425  1  0.608087  0.749898  0.773854  1
  Si  Si3426  1  0.750050  0.820774  0.754699  1
  Si  Si3427  1  0.679231  0.891865  0.792958  1
  Si  Si3428  1  0.891827  0.750135  0.773860  1
  Si  Si3429  1  0.749856  0.679285  0.754692  1
  Si  Si3430  1  0.891885  0.749949  0.639118  1
  Si  Si3431  1  0.749905  0.820786  0.619961  1
  Si  Si3432  1  0.820771  0.891895  0.658215  1
  Si  Si3433  1  0.820695  0.749918  0.831155  1
  Si  Si3434  1  0.891849  0.820788  0.792900  1
  Si  Si3435  1  0.749882  0.891858  0.812001  1
  Si  Si3436  1  0.820791  0.750144  0.696420  1
  Si  Si3437  1  0.891873  0.679306  0.658161  1
  Si  Si3438  1  0.820760  0.749939  0.619960  1
  Si  Si3439  1  0.891883  0.820797  0.658211  1
  Si  Si3440  1  0.749908  0.891882  0.639124  1
  Si  Si3441  1  0.820714  0.750128  0.754698  1
  Si  Si3442  1  0.891780  0.679283  0.792953  1
  Si  Si3443  1  0.891806  0.749938  0.811993  1
  Si  Si3444  1  0.749839  0.820766  0.831166  1
  Si  Si3445  1  0.820731  0.891881  0.792906  1
  Si  Si3446  1  0.891887  0.750153  0.677254  1
  Si  Si3447  1  0.749944  0.679288  0.696410  1
  Si  Si3448  1  0.608143  0.749945  0.677259  1
  Si  Si3449  1  0.750114  0.820776  0.696419  1
  Si  Si3450  1  0.679254  0.891889  0.658167  1
  Si  Si3451  1  0.608085  0.750092  0.811992  1
  Si  Si3452  1  0.750030  0.679270  0.831150  1
  Si  Si3453  1  0.621481  0.692609  0.604352  1
  Si  Si3454  1  0.621454  0.807475  0.739091  1
  Si  Si3455  1  0.550229  0.878500  0.777456  1
  Si  Si3456  1  0.692544  0.949769  0.758303  1
  Si  Si3457  1  0.621449  0.692572  0.846763  1
  Si  Si3458  1  0.621509  0.807459  0.712015  1
  Si  Si3459  1  0.550211  0.878535  0.673665  1
  Si  Si3460  1  0.692569  0.949792  0.692812  1
  Si  Si3461  1  0.550236  0.692625  0.623566  1
  Si  Si3462  1  0.550193  0.807465  0.758301  1
  Si  Si3463  1  0.692530  0.878517  0.739093  1
  Si  Si3464  1  0.621492  0.949774  0.777455  1
  Si  Si3465  1  0.949737  0.692583  0.758308  1
  Si  Si3466  1  0.949783  0.807479  0.623556  1
  Si  Si3467  1  0.807450  0.878519  0.604359  1
  Si  Si3468  1  0.878507  0.949804  0.642712  1
  Si  Si3469  1  0.878464  0.807403  0.846763  1
  Si  Si3470  1  0.949769  0.878494  0.808407  1
  Si  Si3471  1  0.807443  0.949727  0.827562  1
  Si  Si3472  1  0.878522  0.692608  0.712025  1
  H  H3473  1  0.113060  0.199572  0.043928  1
  H  H3474  1  0.199605  0.113068  0.043931  1
  H  H3475  1  0.300476  0.387005  0.043928  1
  H  H3476  1  0.886957  0.199526  0.043926  1
  H  H3477  1  0.699514  0.613051  0.043926  1
  H  H3478  1  0.612958  0.699560  0.043930  1
  H  H3479  1  0.886970  0.800439  0.043931  1
  H  H3480  1  0.387009  0.300478  0.043934  1
  H  H3481  1  0.300446  0.613029  0.043943  1
  H  H3482  1  0.113010  0.800442  0.043936  1
  H  H3483  1  0.199554  0.886963  0.043932  1
  H  H3484  1  0.386970  0.699561  0.043943  1
  H  H3485  1  0.613055  0.300461  0.043942  1
  H  H3486  1  0.800408  0.113015  0.043942  1
  H  H3487  1  0.699583  0.386991  0.043940  1
  H  H3488  1  0.800454  0.886990  0.043937  1
  H  H3489  1  0.113060  0.199572  0.868206  1
  H  H3490  1  0.199605  0.113068  0.868208  1
  H  H3491  1  0.300476  0.387005  0.868206  1
  H  H3492  1  0.886957  0.199526  0.868204  1
  H  H3493  1  0.699514  0.613051  0.868204  1
  H  H3494  1  0.612958  0.699560  0.868208  1
  H  H3495  1  0.886970  0.800439  0.868208  1
  H  H3496  1  0.387009  0.300478  0.868212  1
  H  H3497  1  0.300446  0.613029  0.868221  1
  H  H3498  1  0.113010  0.800442  0.868214  1
  H  H3499  1  0.199554  0.886963  0.868210  1
  H  H3500  1  0.386970  0.699561  0.868221  1
  H  H3501  1  0.613055  0.300461  0.868219  1
  H  H3502  1  0.800408  0.113015  0.868220  1
  H  H3503  1  0.699583  0.386991  0.868218  1
  H  H3504  1  0.800454  0.886990  0.868215  1
