# generated using pymatgen
data_Si36H2O73
_symmetry_space_group_name_H-M   'P 1'
_cell_length_a   28.25841819
_cell_length_b   19.89838588
_cell_length_c   80.67601485
_cell_angle_alpha   90.00000000
_cell_angle_beta   93.20000000
_cell_angle_gamma   90.00000000
_symmetry_Int_Tables_number   1
_chemical_formula_structural   Si36H2O73
_chemical_formula_sum   'Si576 H32 O1168'
_cell_volume   45293.140843
_cell_formula_units_Z   16
loop_
 _symmetry_equiv_pos_site_id
 _symmetry_equiv_pos_as_xyz
  1  'x, y, z'
loop_
 _atom_site_type_symbol
 _atom_site_label
 _atom_site_symmetry_multiplicity
 _atom_site_fract_x
 _atom_site_fract_y
 _atom_site_fract_z
 _atom_site_occupancy
  O  O1  1  0.394429  0.404978  0.073712  1
  O  O2  1  0.395299  0.193842  0.073229  1
  O  O3  1  0.394432  0.594978  0.073713  1
  O  O4  1  0.395301  0.806122  0.073230  1
  O  O5  1  0.894432  0.094995  0.073712  1
  O  O6  1  0.895300  0.306131  0.073229  1
  O  O7  1  0.894434  0.904992  0.073714  1
  O  O8  1  0.895301  0.693848  0.073231  1
  O  O9  1  0.044955  0.100020  0.295095  1
  O  O10  1  0.096629  0.201108  0.302175  1
  O  O11  1  0.131468  0.097299  0.288638  1
  O  O12  1  0.105660  0.094992  0.077917  1
  O  O13  1  0.131779  0.193034  0.231218  1
  O  O14  1  0.126795  0.249673  0.259313  1
  O  O15  1  0.126913  0.122945  0.257904  1
  O  O16  1  0.053286  0.189429  0.248350  1
  O  O17  1  0.045867  0.088786  0.100555  1
  O  O18  1  0.130005  0.123802  0.108491  1
  O  O19  1  0.206445  0.094316  0.271320  1
  O  O20  1  0.293645  0.405652  0.121718  1
  O  O21  1  0.129929  0.302526  0.288118  1
  O  O22  1  0.104790  0.306134  0.078400  1
  O  O23  1  0.044688  0.300722  0.294886  1
  O  O24  1  0.200668  0.199694  0.119866  1
  O  O25  1  0.299423  0.300280  0.273172  1
  O  O26  1  0.295953  0.202370  0.122281  1
  O  O27  1  0.204138  0.297602  0.270756  1
  O  O28  1  0.247253  0.198528  0.147464  1
  O  O29  1  0.252839  0.301436  0.245574  1
  O  O30  1  0.246298  0.302894  0.130245  1
  O  O31  1  0.253793  0.197076  0.262794  1
  O  O32  1  0.046238  0.302503  0.102106  1
  O  O33  1  0.005343  0.248796  0.269512  1
  O  O34  1  0.125824  0.250162  0.106402  1
  O  O35  1  0.123505  0.195582  0.134792  1
  O  O36  1  0.119276  0.376312  0.105718  1
  O  O37  1  0.181881  0.499987  0.218085  1
  O  O38  1  0.130136  0.410284  0.230563  1
  O  O39  1  0.052950  0.411157  0.248242  1
  O  O40  1  0.133682  0.375243  0.261303  1
  O  O41  1  0.123888  0.407292  0.136099  1
  O  O42  1  0.138187  0.499989  0.115567  1
  O  O43  1  0.199325  0.405476  0.120599  1
  O  O44  1  0.300766  0.094495  0.272439  1
  O  O45  1  0.246982  0.406971  0.147706  1
  O  O46  1  0.253109  0.093001  0.245333  1
  O  O47  1  0.168987  0.299692  0.181821  1
  O  O48  1  0.331104  0.200275  0.211217  1
  O  O49  1  0.211093  0.406598  0.175644  1
  O  O50  1  0.289000  0.093368  0.217395  1
  O  O51  1  0.153544  0.403152  0.199204  1
  O  O52  1  0.122451  0.392672  0.167485  1
  O  O53  1  0.041980  0.403066  0.147908  1
  O  O54  1  0.095038  0.299895  0.147853  1
  O  O55  1  0.201074  0.123961  0.220473  1
  O  O56  1  0.299019  0.376008  0.172564  1
  O  O57  1  0.268094  0.499983  0.168200  1
  O  O58  1  0.042733  0.197418  0.147288  1
  O  O59  1  0.212786  0.376376  0.222950  1
  O  O60  1  0.287307  0.123592  0.170089  1
  O  O61  1  0.287311  0.304679  0.217111  1
  O  O62  1  0.212780  0.195289  0.175926  1
  O  O63  1  0.206728  0.249348  0.221779  1
  O  O64  1  0.293362  0.250621  0.171258  1
  O  O65  1  0.154271  0.197878  0.199327  1
  O  O66  1  0.123709  0.206504  0.166974  1
  O  O67  1  0.003607  0.375726  0.272049  1
  O  O68  1  -0.000000  0.122692  0.267604  1
  O  O69  1  0.000000  0.499990  0.260662  1
  O  O70  1  0.116561  0.499989  0.252019  1
  O  O71  1  0.044951  0.899961  0.295096  1
  O  O72  1  0.096628  0.798874  0.302175  1
  O  O73  1  0.131465  0.902681  0.288638  1
  O  O74  1  0.105660  0.904990  0.077917  1
  O  O75  1  0.131775  0.806944  0.231218  1
  O  O76  1  0.126791  0.750307  0.259313  1
  O  O77  1  0.126909  0.877033  0.257904  1
  O  O78  1  0.053281  0.810550  0.248350  1
  O  O79  1  0.045872  0.911194  0.100556  1
  O  O80  1  0.109184  0.000000  0.099309  1
  O  O81  1  0.130010  0.876180  0.108491  1
  O  O82  1  0.293649  0.594316  0.121719  1
  O  O83  1  0.206442  0.905657  0.271320  1
  O  O84  1  0.144433  0.000000  0.268439  1
  O  O85  1  0.129923  0.697453  0.288118  1
  O  O86  1  0.104789  0.693848  0.078400  1
  O  O87  1  0.044683  0.699261  0.294888  1
  O  O88  1  0.299418  0.699687  0.273174  1
  O  O89  1  0.200674  0.800285  0.119866  1
  O  O90  1  0.204133  0.702377  0.270757  1
  O  O91  1  0.295959  0.797591  0.122282  1
  O  O92  1  0.252836  0.698536  0.245575  1
  O  O93  1  0.247258  0.801438  0.147465  1
  O  O94  1  0.253793  0.802896  0.262795  1
  O  O95  1  0.246298  0.697075  0.130245  1
  O  O96  1  0.046243  0.697482  0.102108  1
  O  O97  1  0.005340  0.751185  0.269512  1
  O  O98  1  0.125830  0.749820  0.106402  1
  O  O99  1  0.123510  0.804400  0.134792  1
  O  O100  1  0.119280  0.623669  0.105718  1
  O  O101  1  0.130134  0.589691  0.230562  1
  O  O102  1  0.052949  0.588822  0.248242  1
  O  O103  1  0.133679  0.624737  0.261302  1
  O  O104  1  0.123890  0.592688  0.136098  1
  O  O105  1  0.300763  0.905477  0.272440  1
  O  O106  1  0.199328  0.594495  0.120599  1
  O  O107  1  0.253108  0.906971  0.245334  1
  O  O108  1  0.246984  0.592999  0.147706  1
  O  O109  1  0.331105  0.799692  0.211218  1
  O  O110  1  0.168989  0.700280  0.181822  1
  O  O111  1  0.288999  0.906600  0.217396  1
  O  O112  1  0.211094  0.593371  0.175644  1
  O  O113  1  0.153543  0.596820  0.199204  1
  O  O114  1  0.122452  0.607305  0.167485  1
  O  O115  1  0.041983  0.596917  0.147907  1
  O  O116  1  0.095042  0.700087  0.147852  1
  O  O117  1  0.299020  0.623957  0.172565  1
  O  O118  1  0.201073  0.876012  0.220474  1
  O  O119  1  0.231998  0.000000  0.224839  1
  O  O120  1  0.042739  0.802565  0.147289  1
  O  O121  1  0.287312  0.876372  0.170090  1
  O  O122  1  0.212783  0.623597  0.222950  1
  O  O123  1  0.212786  0.804678  0.175927  1
  O  O124  1  0.287307  0.695295  0.217112  1
  O  O125  1  0.293368  0.749343  0.171259  1
  O  O126  1  0.206723  0.750625  0.221780  1
  O  O127  1  0.154272  0.802095  0.199327  1
  O  O128  1  0.123716  0.793473  0.166974  1
  O  O129  1  0.318213  -0.000000  0.174953  1
  O  O130  1  0.003607  0.624254  0.272050  1
  O  O131  1  0.000000  0.877289  0.267604  1
  O  O132  1  0.006111  0.000000  0.279810  1
  O  O133  1  0.455135  0.399948  0.097941  1
  O  O134  1  0.544955  0.399948  0.295094  1
  O  O135  1  0.403451  0.298865  0.090864  1
  O  O136  1  0.596638  0.298866  0.302172  1
  O  O137  1  0.368622  0.402681  0.104399  1
  O  O138  1  0.631467  0.402680  0.288636  1
  O  O139  1  0.394429  0.404978  0.315120  1
  O  O140  1  0.605660  0.404981  0.077915  1
  O  O141  1  0.368312  0.306931  0.161819  1
  O  O142  1  0.631779  0.306935  0.231217  1
  O  O143  1  0.373297  0.250295  0.133724  1
  O  O144  1  0.626794  0.250298  0.259311  1
  O  O145  1  0.373178  0.377022  0.135133  1
  O  O146  1  0.626913  0.377025  0.257903  1
  O  O147  1  0.446806  0.310540  0.144687  1
  O  O148  1  0.553285  0.310543  0.248348  1
  O  O149  1  0.454224  0.411185  0.292482  1
  O  O150  1  0.545865  0.411185  0.100553  1
  O  O151  1  0.370088  0.376171  0.284545  1
  O  O152  1  0.630002  0.376171  0.108489  1
  O  O153  1  0.355656  0.499981  0.124601  1
  O  O154  1  0.370162  0.197437  0.104919  1
  O  O155  1  0.629929  0.197441  0.288116  1
  O  O156  1  0.395299  0.193842  0.314637  1
  O  O157  1  0.604792  0.193842  0.078398  1
  O  O158  1  0.455403  0.199257  0.098150  1
  O  O159  1  0.544689  0.199256  0.294885  1
  O  O160  1  0.453854  0.197474  0.290931  1
  O  O161  1  0.546238  0.197473  0.102104  1
  O  O162  1  0.505343  0.251178  0.269511  1
  O  O163  1  0.494749  0.251176  0.123525  1
  O  O164  1  0.503610  0.124247  0.272049  1
  O  O165  1  0.496481  0.124245  0.120986  1
  O  O166  1  0.374267  0.249812  0.286635  1
  O  O167  1  0.625826  0.249811  0.106401  1
  O  O168  1  0.376585  0.304390  0.258244  1
  O  O169  1  0.623505  0.304391  0.134791  1
  O  O170  1  0.380817  0.123662  0.287320  1
  O  O171  1  0.619276  0.123661  0.105716  1
  O  O172  1  0.500944  0.377282  0.267602  1
  O  O173  1  0.499145  0.377280  0.125432  1
  O  O174  1  0.369957  0.089686  0.162475  1
  O  O175  1  0.630134  0.089687  0.230560  1
  O  O176  1  0.447140  0.088815  0.144794  1
  O  O177  1  0.552950  0.088815  0.248241  1
  O  O178  1  0.366406  0.124725  0.131736  1
  O  O179  1  0.633683  0.124728  0.261300  1
  O  O180  1  0.376203  0.092680  0.256940  1
  O  O181  1  0.623887  0.092680  0.136096  1
  O  O182  1  0.346549  0.096817  0.193834  1
  O  O183  1  0.653541  0.096818  0.199201  1
  O  O184  1  0.377642  0.107298  0.225553  1
  O  O185  1  0.622447  0.107299  0.167482  1
  O  O186  1  0.458111  0.096904  0.245131  1
  O  O187  1  0.541979  0.096906  0.147904  1
  O  O188  1  0.405055  0.200077  0.245185  1
  O  O189  1  0.595036  0.200078  0.147850  1
  O  O190  1  0.457357  0.302557  0.245748  1
  O  O191  1  0.542734  0.302557  0.147287  1
  O  O192  1  0.345821  0.302087  0.193710  1
  O  O193  1  0.654270  0.302091  0.199325  1
  O  O194  1  0.376382  0.293464  0.226063  1
  O  O195  1  0.623708  0.293467  0.166972  1
  O  O196  1  0.609181  0.499981  0.099307  1
  O  O197  1  0.390909  0.499981  0.293729  1
  O  O198  1  0.644437  0.499982  0.268435  1
  O  O199  1  0.493978  0.499981  0.113226  1
  O  O200  1  0.506112  0.499982  0.279810  1
  O  O201  1  0.544951  0.600016  0.295095  1
  O  O202  1  0.455139  0.600016  0.097942  1
  O  O203  1  0.596639  0.701096  0.302172  1
  O  O204  1  0.403452  0.701095  0.090864  1
  O  O205  1  0.631464  0.597280  0.288637  1
  O  O206  1  0.368626  0.597282  0.104401  1
  O  O207  1  0.605659  0.594982  0.077916  1
  O  O208  1  0.394432  0.594978  0.315122  1
  O  O209  1  0.631775  0.693030  0.231217  1
  O  O210  1  0.368318  0.693027  0.161821  1
  O  O211  1  0.626790  0.749666  0.259311  1
  O  O212  1  0.373302  0.749663  0.133726  1
  O  O213  1  0.626909  0.622939  0.257903  1
  O  O214  1  0.373183  0.622936  0.135135  1
  O  O215  1  0.553281  0.689421  0.248349  1
  O  O216  1  0.446811  0.689418  0.144689  1
  O  O217  1  0.545870  0.588779  0.100555  1
  O  O218  1  0.454221  0.588779  0.292482  1
  O  O219  1  0.630006  0.623791  0.108490  1
  O  O220  1  0.370084  0.623794  0.284548  1
  O  O221  1  0.629923  0.802526  0.288116  1
  O  O222  1  0.370169  0.802522  0.104921  1
  O  O223  1  0.604791  0.806119  0.078398  1
  O  O224  1  0.395301  0.806122  0.314639  1
  O  O225  1  0.544684  0.800701  0.294887  1
  O  O226  1  0.455408  0.800698  0.098150  1
  O  O227  1  0.546243  0.802486  0.102106  1
  O  O228  1  0.453850  0.802491  0.290932  1
  O  O229  1  0.494752  0.748783  0.123526  1
  O  O230  1  0.505339  0.748786  0.269511  1
  O  O231  1  0.496482  0.875714  0.120986  1
  O  O232  1  0.503610  0.875716  0.272050  1
  O  O233  1  0.625831  0.750150  0.106401  1
  O  O234  1  0.374262  0.750153  0.286637  1
  O  O235  1  0.623510  0.695571  0.134791  1
  O  O236  1  0.376581  0.695573  0.258247  1
  O  O237  1  0.619280  0.876301  0.105715  1
  O  O238  1  0.380812  0.876304  0.287322  1
  O  O239  1  0.499148  0.622679  0.125434  1
  O  O240  1  0.500943  0.622682  0.267603  1
  O  O241  1  0.630131  0.910281  0.230560  1
  O  O242  1  0.369961  0.910280  0.162477  1
  O  O243  1  0.552949  0.911148  0.248241  1
  O  O244  1  0.447144  0.911148  0.144795  1
  O  O245  1  0.633681  0.875235  0.261299  1
  O  O246  1  0.366411  0.875232  0.131738  1
  O  O247  1  0.616561  0.000000  0.252017  1
  O  O248  1  0.383531  0.000000  0.141019  1
  O  O249  1  0.623890  0.907283  0.136095  1
  O  O250  1  0.376201  0.907283  0.256942  1
  O  O251  1  0.638187  0.000000  0.115565  1
  O  O252  1  0.361905  0.000000  0.277471  1
  O  O253  1  0.653541  0.903154  0.199201  1
  O  O254  1  0.346551  0.903153  0.193836  1
  O  O255  1  0.622450  0.892668  0.167482  1
  O  O256  1  0.377641  0.892667  0.225555  1
  O  O257  1  0.541982  0.903057  0.147904  1
  O  O258  1  0.458110  0.903056  0.245133  1
  O  O259  1  0.595040  0.799885  0.147850  1
  O  O260  1  0.405051  0.799885  0.245187  1
  O  O261  1  0.499960  0.000000  0.132373  1
  O  O262  1  0.500131  0.000000  0.260662  1
  O  O263  1  0.542740  0.697404  0.147288  1
  O  O264  1  0.457352  0.697405  0.245750  1
  O  O265  1  0.654271  0.697880  0.199325  1
  O  O266  1  0.345820  0.697876  0.193713  1
  O  O267  1  0.623715  0.706500  0.166972  1
  O  O268  1  0.376376  0.706499  0.226065  1
  O  O269  1  0.955137  0.100018  0.097942  1
  O  O270  1  0.903465  0.201108  0.090863  1
  O  O271  1  0.868624  0.097300  0.104399  1
  O  O272  1  0.894432  0.094995  0.315121  1
  O  O273  1  0.868311  0.193037  0.161819  1
  O  O274  1  0.873296  0.249676  0.133725  1
  O  O275  1  0.873178  0.122949  0.135133  1
  O  O276  1  0.946805  0.189432  0.144687  1
  O  O277  1  0.954225  0.088786  0.292483  1
  O  O278  1  0.870087  0.123800  0.284546  1
  O  O279  1  0.793646  0.094321  0.121717  1
  O  O280  1  0.706446  0.405650  0.271318  1
  O  O281  1  0.870162  0.302527  0.104919  1
  O  O282  1  0.895300  0.306131  0.314638  1
  O  O283  1  0.955403  0.300728  0.098151  1
  O  O284  1  0.799423  0.199689  0.273170  1
  O  O285  1  0.700668  0.300284  0.119864  1
  O  O286  1  0.704138  0.202371  0.270755  1
  O  O287  1  0.795954  0.297604  0.122280  1
  O  O288  1  0.752838  0.198529  0.245572  1
  O  O289  1  0.747252  0.301441  0.147463  1
  O  O290  1  0.753796  0.302893  0.262792  1
  O  O291  1  0.746296  0.197080  0.130242  1
  O  O292  1  0.953852  0.302498  0.290932  1
  O  O293  1  0.994748  0.248798  0.123526  1
  O  O294  1  0.874265  0.250160  0.286635  1
  O  O295  1  0.876587  0.195580  0.258245  1
  O  O296  1  0.880815  0.376310  0.287319  1
  O  O297  1  0.869954  0.410286  0.162475  1
  O  O298  1  0.947140  0.411158  0.144796  1
  O  O299  1  0.866409  0.375246  0.131735  1
  O  O300  1  0.876204  0.407293  0.256939  1
  O  O301  1  0.800766  0.405475  0.272438  1
  O  O302  1  0.699325  0.094496  0.120597  1
  O  O303  1  0.753109  0.406970  0.245331  1
  O  O304  1  0.746982  0.093004  0.147704  1
  O  O305  1  0.831105  0.299694  0.211216  1
  O  O306  1  0.668984  0.200277  0.181819  1
  O  O307  1  0.789000  0.406602  0.217394  1
  O  O308  1  0.711090  0.093371  0.175641  1
  O  O309  1  0.846548  0.403153  0.193833  1
  O  O310  1  0.877642  0.392673  0.225552  1
  O  O311  1  0.958111  0.403065  0.245131  1
  O  O312  1  0.905053  0.299894  0.245185  1
  O  O313  1  0.799016  0.123964  0.172564  1
  O  O314  1  0.701074  0.376011  0.220471  1
  O  O315  1  0.818210  0.499989  0.174953  1
  O  O316  1  0.957358  0.197417  0.245749  1
  O  O317  1  0.787305  0.376379  0.170088  1
  O  O318  1  0.712784  0.123595  0.222947  1
  O  O319  1  0.712779  0.304680  0.175925  1
  O  O320  1  0.787312  0.195291  0.217110  1
  O  O321  1  0.793363  0.249351  0.171258  1
  O  O322  1  0.706729  0.250624  0.221777  1
  O  O323  1  0.845820  0.197881  0.193710  1
  O  O324  1  0.876382  0.206505  0.226063  1
  O  O325  1  0.996484  0.375729  0.120989  1
  O  O326  1  0.731998  0.499986  0.224837  1
  O  O327  1  0.861904  0.499988  0.277471  1
  O  O328  1  0.000000  0.122694  0.125434  1
  O  O329  1  0.883531  0.499992  0.141019  1
  O  O330  1  0.000000  0.499992  0.132377  1
  O  O331  1  0.955142  0.899959  0.097943  1
  O  O332  1  0.903464  0.798875  0.090864  1
  O  O333  1  0.868629  0.902684  0.104400  1
  O  O334  1  0.894434  0.904992  0.315122  1
  O  O335  1  0.868316  0.806948  0.161821  1
  O  O336  1  0.873301  0.750311  0.133726  1
  O  O337  1  0.873182  0.877037  0.135134  1
  O  O338  1  0.946810  0.810553  0.144689  1
  O  O339  1  0.954221  0.911193  0.292482  1
  O  O340  1  0.870084  0.876179  0.284548  1
  O  O341  1  0.706442  0.594320  0.271319  1
  O  O342  1  0.793650  0.905655  0.121718  1
  O  O343  1  0.870168  0.697455  0.104921  1
  O  O344  1  0.895301  0.693848  0.314639  1
  O  O345  1  0.955408  0.699263  0.098152  1
  O  O346  1  0.700674  0.699682  0.119865  1
  O  O347  1  0.799418  0.800288  0.273172  1
  O  O348  1  0.795959  0.702378  0.122282  1
  O  O349  1  0.704133  0.797594  0.270756  1
  O  O350  1  0.747257  0.698537  0.147464  1
  O  O351  1  0.752834  0.801442  0.245573  1
  O  O352  1  0.746297  0.802896  0.130242  1
  O  O353  1  0.753795  0.697078  0.262793  1
  O  O354  1  0.953848  0.697480  0.290932  1
  O  O355  1  0.994751  0.751187  0.123527  1
  O  O356  1  0.874260  0.749819  0.286637  1
  O  O357  1  0.876582  0.804400  0.258247  1
  O  O358  1  0.880810  0.623668  0.287321  1
  O  O359  1  0.869958  0.589692  0.162477  1
  O  O360  1  0.947143  0.588824  0.144797  1
  O  O361  1  0.866413  0.624740  0.131737  1
  O  O362  1  -0.000000  0.877290  0.125435  1
  O  O363  1  0.876202  0.592688  0.256941  1
  O  O364  1  0.699329  0.905478  0.120597  1
  O  O365  1  0.800763  0.594496  0.272439  1
  O  O366  1  0.746984  0.906970  0.147704  1
  O  O367  1  0.753107  0.593001  0.245332  1
  O  O368  1  0.668987  0.799694  0.181819  1
  O  O369  1  0.831105  0.700282  0.211217  1
  O  O370  1  0.711091  0.906603  0.175641  1
  O  O371  1  0.788999  0.593375  0.217395  1
  O  O372  1  0.846549  0.596820  0.193835  1
  O  O373  1  0.877640  0.607306  0.225554  1
  O  O374  1  0.958109  0.596917  0.245132  1
  O  O375  1  0.905050  0.700087  0.245187  1
  O  O376  1  0.701072  0.623960  0.220472  1
  O  O377  1  0.799018  0.876016  0.172564  1
  O  O378  1  0.957353  0.802565  0.245750  1
  O  O379  1  0.712781  0.876375  0.222947  1
  O  O380  1  0.787310  0.623600  0.170089  1
  O  O381  1  0.787307  0.804679  0.217111  1
  O  O382  1  0.712785  0.695296  0.175926  1
  O  O383  1  0.706725  0.749346  0.221779  1
  O  O384  1  0.793368  0.750629  0.171258  1
  O  O385  1  0.845820  0.802099  0.193712  1
  O  O386  1  0.876377  0.793474  0.226065  1
  O  O387  1  0.681879  -0.000000  0.218083  1
  O  O388  1  0.996485  0.624256  0.120989  1
  O  O389  1  0.768092  0.000000  0.168197  1
  O  O390  1  0.890909  0.000000  0.293729  1
  O  O391  1  0.855657  -0.000000  0.124600  1
  O  O392  1  0.993982  0.000000  0.113229  1
  O  O393  1  0.044955  0.100020  0.536504  1
  O  O394  1  0.096629  0.201108  0.543583  1
  O  O395  1  0.131468  0.097299  0.530047  1
  O  O396  1  0.105660  0.094992  0.319325  1
  O  O397  1  0.131779  0.193034  0.472627  1
  O  O398  1  0.126795  0.249673  0.500721  1
  O  O399  1  0.126913  0.122945  0.499313  1
  O  O400  1  0.053286  0.189429  0.489758  1
  O  O401  1  0.045867  0.088786  0.341963  1
  O  O402  1  0.130005  0.123802  0.349899  1
  O  O403  1  0.206445  0.094316  0.512728  1
  O  O404  1  0.293645  0.405652  0.363126  1
  O  O405  1  0.129929  0.302526  0.529527  1
  O  O406  1  0.104790  0.306134  0.319808  1
  O  O407  1  0.044688  0.300722  0.536295  1
  O  O408  1  0.200668  0.199694  0.361274  1
  O  O409  1  0.299423  0.300280  0.514580  1
  O  O410  1  0.295953  0.202370  0.363689  1
  O  O411  1  0.204138  0.297602  0.512165  1
  O  O412  1  0.247253  0.198528  0.388872  1
  O  O413  1  0.252839  0.301436  0.486982  1
  O  O414  1  0.246298  0.302894  0.371653  1
  O  O415  1  0.253793  0.197076  0.504202  1
  O  O416  1  0.046238  0.302503  0.343514  1
  O  O417  1  0.005343  0.248796  0.510920  1
  O  O418  1  0.125824  0.250162  0.347811  1
  O  O419  1  0.123505  0.195582  0.376200  1
  O  O420  1  0.119276  0.376312  0.347126  1
  O  O421  1  0.181881  0.499987  0.459494  1
  O  O422  1  0.130136  0.410284  0.471971  1
  O  O423  1  0.052950  0.411157  0.489651  1
  O  O424  1  0.133682  0.375243  0.502711  1
  O  O425  1  0.123888  0.407292  0.377507  1
  O  O426  1  0.138187  0.499989  0.356976  1
  O  O427  1  0.199325  0.405476  0.362008  1
  O  O428  1  0.300766  0.094495  0.513847  1
  O  O429  1  0.246982  0.406971  0.389114  1
  O  O430  1  0.253109  0.093001  0.486741  1
  O  O431  1  0.168987  0.299692  0.423229  1
  O  O432  1  0.331104  0.200275  0.452625  1
  O  O433  1  0.211093  0.406598  0.417052  1
  O  O434  1  0.289000  0.093368  0.458803  1
  O  O435  1  0.153544  0.403152  0.440613  1
  O  O436  1  0.122451  0.392672  0.408894  1
  O  O437  1  0.041980  0.403066  0.389316  1
  O  O438  1  0.095038  0.299895  0.389261  1
  O  O439  1  0.201074  0.123961  0.461882  1
  O  O440  1  0.299019  0.376008  0.413973  1
  O  O441  1  0.268094  0.499983  0.409609  1
  O  O442  1  0.042733  0.197418  0.388696  1
  O  O443  1  0.212786  0.376376  0.464358  1
  O  O444  1  0.287307  0.123592  0.411497  1
  O  O445  1  0.287311  0.304679  0.458519  1
  O  O446  1  0.212780  0.195289  0.417334  1
  O  O447  1  0.206728  0.249348  0.463187  1
  O  O448  1  0.293362  0.250621  0.412666  1
  O  O449  1  0.154271  0.197878  0.440735  1
  O  O450  1  0.123709  0.206504  0.408383  1
  O  O451  1  0.003607  0.375726  0.513458  1
  O  O452  1  0.000000  0.122692  0.509012  1
  O  O453  1  -0.000000  0.499990  0.502070  1
  O  O454  1  0.116561  0.499989  0.493428  1
  O  O455  1  0.044951  0.899961  0.536505  1
  O  O456  1  0.096628  0.798874  0.543584  1
  O  O457  1  0.131465  0.902681  0.530047  1
  O  O458  1  0.105660  0.904990  0.319326  1
  O  O459  1  0.131775  0.806944  0.472627  1
  O  O460  1  0.126791  0.750307  0.500721  1
  O  O461  1  0.126909  0.877033  0.499313  1
  O  O462  1  0.053281  0.810550  0.489758  1
  O  O463  1  0.045872  0.911194  0.341965  1
  O  O464  1  0.109184  0.000000  0.340717  1
  O  O465  1  0.130010  0.876180  0.349899  1
  O  O466  1  0.293649  0.594316  0.363127  1
  O  O467  1  0.206442  0.905657  0.512729  1
  O  O468  1  0.144433  -0.000000  0.509847  1
  O  O469  1  0.129923  0.697453  0.529527  1
  O  O470  1  0.104789  0.693848  0.319808  1
  O  O471  1  0.044683  0.699261  0.536296  1
  O  O472  1  0.299418  0.699687  0.514582  1
  O  O473  1  0.200674  0.800285  0.361275  1
  O  O474  1  0.204133  0.702377  0.512166  1
  O  O475  1  0.295959  0.797591  0.363690  1
  O  O476  1  0.252836  0.698536  0.486983  1
  O  O477  1  0.247258  0.801438  0.388873  1
  O  O478  1  0.253793  0.802896  0.504204  1
  O  O479  1  0.246298  0.697075  0.371653  1
  O  O480  1  0.046243  0.697482  0.343516  1
  O  O481  1  0.005340  0.751185  0.510921  1
  O  O482  1  0.125830  0.749820  0.347811  1
  O  O483  1  0.123510  0.804400  0.376200  1
  O  O484  1  0.119280  0.623669  0.347126  1
  O  O485  1  0.130134  0.589691  0.471971  1
  O  O486  1  0.052949  0.588822  0.489651  1
  O  O487  1  0.133679  0.624737  0.502711  1
  O  O488  1  0.123890  0.592688  0.377506  1
  O  O489  1  0.300763  0.905477  0.513849  1
  O  O490  1  0.199328  0.594495  0.362008  1
  O  O491  1  0.253108  0.906971  0.486742  1
  O  O492  1  0.246984  0.592999  0.389115  1
  O  O493  1  0.331105  0.799692  0.452626  1
  O  O494  1  0.168989  0.700280  0.423230  1
  O  O495  1  0.288999  0.906600  0.458804  1
  O  O496  1  0.211094  0.593371  0.417052  1
  O  O497  1  0.153543  0.596820  0.440612  1
  O  O498  1  0.122452  0.607305  0.408893  1
  O  O499  1  0.041983  0.596917  0.389315  1
  O  O500  1  0.095042  0.700087  0.389261  1
  O  O501  1  0.299020  0.623957  0.413974  1
  O  O502  1  0.201073  0.876012  0.461882  1
  O  O503  1  0.231998  0.000000  0.466248  1
  O  O504  1  0.042739  0.802565  0.388697  1
  O  O505  1  0.287312  0.876372  0.411498  1
  O  O506  1  0.212783  0.623597  0.464359  1
  O  O507  1  0.212786  0.804678  0.417336  1
  O  O508  1  0.287307  0.695295  0.458520  1
  O  O509  1  0.293368  0.749343  0.412667  1
  O  O510  1  0.206723  0.750625  0.463189  1
  O  O511  1  0.154272  0.802095  0.440735  1
  O  O512  1  0.123716  0.793473  0.408382  1
  O  O513  1  0.318213  0.000000  0.416362  1
  O  O514  1  0.003607  0.624254  0.513458  1
  O  O515  1  -0.000000  0.877289  0.509012  1
  O  O516  1  0.006111  0.000000  0.521218  1
  O  O517  1  0.455135  0.399948  0.339349  1
  O  O518  1  0.544955  0.399948  0.536503  1
  O  O519  1  0.403451  0.298865  0.332272  1
  O  O520  1  0.596638  0.298866  0.543580  1
  O  O521  1  0.368622  0.402681  0.345807  1
  O  O522  1  0.631467  0.402680  0.530045  1
  O  O523  1  0.394429  0.404978  0.556528  1
  O  O524  1  0.605660  0.404981  0.319323  1
  O  O525  1  0.368312  0.306931  0.403227  1
  O  O526  1  0.631779  0.306935  0.472625  1
  O  O527  1  0.373297  0.250295  0.375132  1
  O  O528  1  0.626794  0.250298  0.500720  1
  O  O529  1  0.373178  0.377022  0.376541  1
  O  O530  1  0.626913  0.377025  0.499311  1
  O  O531  1  0.446806  0.310540  0.386095  1
  O  O532  1  0.553285  0.310543  0.489757  1
  O  O533  1  0.454224  0.411185  0.533891  1
  O  O534  1  0.545865  0.411185  0.341961  1
  O  O535  1  0.370088  0.376171  0.525954  1
  O  O536  1  0.630002  0.376171  0.349898  1
  O  O537  1  0.355656  0.499981  0.366010  1
  O  O538  1  0.370162  0.197437  0.346327  1
  O  O539  1  0.629929  0.197441  0.529524  1
  O  O540  1  0.395299  0.193842  0.556045  1
  O  O541  1  0.604792  0.193842  0.319806  1
  O  O542  1  0.455403  0.199257  0.339558  1
  O  O543  1  0.544689  0.199256  0.536294  1
  O  O544  1  0.453854  0.197474  0.532340  1
  O  O545  1  0.546238  0.197473  0.343512  1
  O  O546  1  0.505343  0.251178  0.510919  1
  O  O547  1  0.494749  0.251176  0.364933  1
  O  O548  1  0.503610  0.124247  0.513457  1
  O  O549  1  0.496481  0.124245  0.362394  1
  O  O550  1  0.374267  0.249812  0.528043  1
  O  O551  1  0.625826  0.249811  0.347809  1
  O  O552  1  0.376585  0.304390  0.499653  1
  O  O553  1  0.623505  0.304391  0.376199  1
  O  O554  1  0.380817  0.123662  0.528728  1
  O  O555  1  0.619276  0.123661  0.347124  1
  O  O556  1  0.500944  0.377282  0.509011  1
  O  O557  1  0.499145  0.377280  0.366841  1
  O  O558  1  0.369957  0.089686  0.403884  1
  O  O559  1  0.630134  0.089687  0.471969  1
  O  O560  1  0.447140  0.088815  0.386202  1
  O  O561  1  0.552950  0.088815  0.489650  1
  O  O562  1  0.366406  0.124725  0.373144  1
  O  O563  1  0.633683  0.124728  0.502708  1
  O  O564  1  0.376203  0.092680  0.498348  1
  O  O565  1  0.623887  0.092680  0.377504  1
  O  O566  1  0.346549  0.096817  0.435242  1
  O  O567  1  0.653541  0.096818  0.440610  1
  O  O568  1  0.377642  0.107298  0.466961  1
  O  O569  1  0.622447  0.107299  0.408891  1
  O  O570  1  0.458111  0.096904  0.486539  1
  O  O571  1  0.541979  0.096906  0.389312  1
  O  O572  1  0.405055  0.200077  0.486593  1
  O  O573  1  0.595036  0.200078  0.389258  1
  O  O574  1  0.457357  0.302557  0.487157  1
  O  O575  1  0.542734  0.302557  0.388695  1
  O  O576  1  0.345821  0.302087  0.435119  1
  O  O577  1  0.654270  0.302091  0.440733  1
  O  O578  1  0.376382  0.293464  0.467471  1
  O  O579  1  0.623708  0.293467  0.408381  1
  O  O580  1  0.609181  0.499981  0.340716  1
  O  O581  1  0.390909  0.499981  0.535137  1
  O  O582  1  0.644437  0.499982  0.509843  1
  O  O583  1  0.493978  0.499981  0.354634  1
  O  O584  1  0.506112  0.499982  0.521218  1
  O  O585  1  0.544951  0.600016  0.536503  1
  O  O586  1  0.455139  0.600016  0.339350  1
  O  O587  1  0.596639  0.701096  0.543580  1
  O  O588  1  0.403452  0.701095  0.332272  1
  O  O589  1  0.631464  0.597280  0.530045  1
  O  O590  1  0.368626  0.597282  0.345809  1
  O  O591  1  0.605659  0.594982  0.319324  1
  O  O592  1  0.394432  0.594978  0.556530  1
  O  O593  1  0.631775  0.693030  0.472625  1
  O  O594  1  0.368318  0.693027  0.403229  1
  O  O595  1  0.626790  0.749666  0.500720  1
  O  O596  1  0.373302  0.749663  0.375134  1
  O  O597  1  0.626909  0.622939  0.499311  1
  O  O598  1  0.373183  0.622936  0.376543  1
  O  O599  1  0.553281  0.689421  0.489757  1
  O  O600  1  0.446811  0.689418  0.386097  1
  O  O601  1  0.545870  0.588779  0.341963  1
  O  O602  1  0.454221  0.588779  0.533891  1
  O  O603  1  0.630006  0.623791  0.349898  1
  O  O604  1  0.370084  0.623794  0.525956  1
  O  O605  1  0.629923  0.802526  0.529524  1
  O  O606  1  0.370169  0.802522  0.346329  1
  O  O607  1  0.604791  0.806119  0.319807  1
  O  O608  1  0.395301  0.806122  0.556047  1
  O  O609  1  0.544684  0.800701  0.536295  1
  O  O610  1  0.455408  0.800698  0.339559  1
  O  O611  1  0.546243  0.802486  0.343514  1
  O  O612  1  0.453850  0.802491  0.532340  1
  O  O613  1  0.494752  0.748783  0.364934  1
  O  O614  1  0.505339  0.748786  0.510920  1
  O  O615  1  0.496482  0.875714  0.362395  1
  O  O616  1  0.503610  0.875716  0.513458  1
  O  O617  1  0.625831  0.750150  0.347809  1
  O  O618  1  0.374262  0.750153  0.528045  1
  O  O619  1  0.623510  0.695571  0.376199  1
  O  O620  1  0.376581  0.695573  0.499655  1
  O  O621  1  0.619280  0.876301  0.347124  1
  O  O622  1  0.380812  0.876304  0.528730  1
  O  O623  1  0.499148  0.622679  0.366842  1
  O  O624  1  0.500943  0.622682  0.509011  1
  O  O625  1  0.630131  0.910281  0.471968  1
  O  O626  1  0.369961  0.910280  0.403885  1
  O  O627  1  0.552949  0.911148  0.489650  1
  O  O628  1  0.447144  0.911148  0.386203  1
  O  O629  1  0.633681  0.875235  0.502708  1
  O  O630  1  0.366411  0.875232  0.373146  1
  O  O631  1  0.616561  0.000000  0.493425  1
  O  O632  1  0.383531  0.000000  0.382427  1
  O  O633  1  0.623890  0.907283  0.377504  1
  O  O634  1  0.376201  0.907283  0.498350  1
  O  O635  1  0.638187  0.000000  0.356973  1
  O  O636  1  0.361905  -0.000000  0.518880  1
  O  O637  1  0.653541  0.903154  0.440610  1
  O  O638  1  0.346551  0.903153  0.435244  1
  O  O639  1  0.622450  0.892668  0.408890  1
  O  O640  1  0.377641  0.892667  0.466963  1
  O  O641  1  0.541982  0.903057  0.389312  1
  O  O642  1  0.458110  0.903056  0.486541  1
  O  O643  1  0.595040  0.799885  0.389258  1
  O  O644  1  0.405051  0.799885  0.486595  1
  O  O645  1  0.499960  -0.000000  0.373781  1
  O  O646  1  0.500131  0.000000  0.502071  1
  O  O647  1  0.542740  0.697404  0.388696  1
  O  O648  1  0.457352  0.697405  0.487158  1
  O  O649  1  0.654271  0.697880  0.440734  1
  O  O650  1  0.345820  0.697876  0.435121  1
  O  O651  1  0.623715  0.706500  0.408381  1
  O  O652  1  0.376376  0.706499  0.467473  1
  O  O653  1  0.955137  0.100018  0.339350  1
  O  O654  1  0.903465  0.201108  0.332272  1
  O  O655  1  0.868624  0.097300  0.345807  1
  O  O656  1  0.894432  0.094995  0.556529  1
  O  O657  1  0.868311  0.193037  0.403227  1
  O  O658  1  0.873296  0.249676  0.375133  1
  O  O659  1  0.873178  0.122949  0.376541  1
  O  O660  1  0.946805  0.189432  0.386096  1
  O  O661  1  0.954225  0.088786  0.533891  1
  O  O662  1  0.870087  0.123800  0.525955  1
  O  O663  1  0.793646  0.094321  0.363125  1
  O  O664  1  0.706446  0.405650  0.512727  1
  O  O665  1  0.870162  0.302527  0.346327  1
  O  O666  1  0.895300  0.306131  0.556046  1
  O  O667  1  0.955403  0.300728  0.339560  1
  O  O668  1  0.799423  0.199689  0.514579  1
  O  O669  1  0.700668  0.300284  0.361273  1
  O  O670  1  0.704138  0.202371  0.512163  1
  O  O671  1  0.795954  0.297604  0.363689  1
  O  O672  1  0.752838  0.198529  0.486980  1
  O  O673  1  0.747252  0.301441  0.388871  1
  O  O674  1  0.753796  0.302893  0.504200  1
  O  O675  1  0.746296  0.197080  0.371651  1
  O  O676  1  0.953852  0.302498  0.532340  1
  O  O677  1  0.994748  0.248798  0.364934  1
  O  O678  1  0.874265  0.250160  0.528043  1
  O  O679  1  0.876587  0.195580  0.499653  1
  O  O680  1  0.880815  0.376310  0.528728  1
  O  O681  1  0.869954  0.410286  0.403883  1
  O  O682  1  0.947140  0.411158  0.386204  1
  O  O683  1  0.866409  0.375246  0.373143  1
  O  O684  1  0.876204  0.407293  0.498347  1
  O  O685  1  0.800766  0.405475  0.513846  1
  O  O686  1  0.699325  0.094496  0.362005  1
  O  O687  1  0.753109  0.406970  0.486739  1
  O  O688  1  0.746982  0.093004  0.389112  1
  O  O689  1  0.831105  0.299694  0.452625  1
  O  O690  1  0.668984  0.200277  0.423227  1
  O  O691  1  0.789000  0.406602  0.458802  1
  O  O692  1  0.711090  0.093371  0.417049  1
  O  O693  1  0.846548  0.403153  0.435241  1
  O  O694  1  0.877642  0.392673  0.466961  1
  O  O695  1  0.958111  0.403065  0.486539  1
  O  O696  1  0.905053  0.299894  0.486593  1
  O  O697  1  0.799016  0.123964  0.413972  1
  O  O698  1  0.701074  0.376011  0.461880  1
  O  O699  1  0.818210  0.499989  0.416361  1
  O  O700  1  0.957358  0.197417  0.487157  1
  O  O701  1  0.787305  0.376379  0.411496  1
  O  O702  1  0.712784  0.123595  0.464355  1
  O  O703  1  0.712779  0.304680  0.417333  1
  O  O704  1  0.787312  0.195291  0.458519  1
  O  O705  1  0.793363  0.249351  0.412666  1
  O  O706  1  0.706729  0.250624  0.463186  1
  O  O707  1  0.845820  0.197881  0.435119  1
  O  O708  1  0.876382  0.206505  0.467471  1
  O  O709  1  0.996484  0.375729  0.362397  1
  O  O710  1  0.731998  0.499986  0.466246  1
  O  O711  1  0.861904  0.499988  0.518879  1
  O  O712  1  -0.000000  0.122694  0.366842  1
  O  O713  1  0.883531  0.499992  0.382427  1
  O  O714  1  -0.000000  0.499992  0.373785  1
  O  O715  1  0.955142  0.899959  0.339351  1
  O  O716  1  0.903464  0.798875  0.332272  1
  O  O717  1  0.868629  0.902684  0.345809  1
  O  O718  1  0.894434  0.904992  0.556530  1
  O  O719  1  0.868316  0.806948  0.403229  1
  O  O720  1  0.873301  0.750311  0.375135  1
  O  O721  1  0.873182  0.877037  0.376543  1
  O  O722  1  0.946810  0.810553  0.386098  1
  O  O723  1  0.954221  0.911193  0.533891  1
  O  O724  1  0.870084  0.876179  0.525957  1
  O  O725  1  0.706442  0.594320  0.512727  1
  O  O726  1  0.793650  0.905655  0.363126  1
  O  O727  1  0.870168  0.697455  0.346329  1
  O  O728  1  0.895301  0.693848  0.556047  1
  O  O729  1  0.955408  0.699263  0.339560  1
  O  O730  1  0.700674  0.699682  0.361273  1
  O  O731  1  0.799418  0.800288  0.514581  1
  O  O732  1  0.795959  0.702378  0.363690  1
  O  O733  1  0.704133  0.797594  0.512164  1
  O  O734  1  0.747257  0.698537  0.388872  1
  O  O735  1  0.752834  0.801442  0.486982  1
  O  O736  1  0.746297  0.802896  0.371651  1
  O  O737  1  0.753795  0.697078  0.504201  1
  O  O738  1  0.953848  0.697480  0.532340  1
  O  O739  1  0.994751  0.751187  0.364935  1
  O  O740  1  0.874260  0.749819  0.528045  1
  O  O741  1  0.876582  0.804400  0.499655  1
  O  O742  1  0.880810  0.623668  0.528730  1
  O  O743  1  0.869958  0.589692  0.403885  1
  O  O744  1  0.947143  0.588824  0.386205  1
  O  O745  1  0.866413  0.624740  0.373145  1
  O  O746  1  0.000000  0.877290  0.366844  1
  O  O747  1  0.876202  0.592688  0.498349  1
  O  O748  1  0.699329  0.905478  0.362005  1
  O  O749  1  0.800763  0.594496  0.513847  1
  O  O750  1  0.746984  0.906970  0.389112  1
  O  O751  1  0.753107  0.593001  0.486740  1
  O  O752  1  0.668987  0.799694  0.423228  1
  O  O753  1  0.831105  0.700282  0.452625  1
  O  O754  1  0.711091  0.906603  0.417049  1
  O  O755  1  0.788999  0.593375  0.458803  1
  O  O756  1  0.846549  0.596820  0.435243  1
  O  O757  1  0.877640  0.607306  0.466963  1
  O  O758  1  0.958109  0.596917  0.486540  1
  O  O759  1  0.905050  0.700087  0.486595  1
  O  O760  1  0.701072  0.623960  0.461881  1
  O  O761  1  0.799018  0.876016  0.413973  1
  O  O762  1  0.957353  0.802565  0.487159  1
  O  O763  1  0.712781  0.876375  0.464356  1
  O  O764  1  0.787310  0.623600  0.411497  1
  O  O765  1  0.787307  0.804679  0.458520  1
  O  O766  1  0.712785  0.695296  0.417334  1
  O  O767  1  0.706725  0.749346  0.463188  1
  O  O768  1  0.793368  0.750629  0.412667  1
  O  O769  1  0.845820  0.802099  0.435120  1
  O  O770  1  0.876377  0.793474  0.467473  1
  O  O771  1  0.681879  -0.000000  0.459491  1
  O  O772  1  0.996485  0.624256  0.362398  1
  O  O773  1  0.768092  -0.000000  0.409606  1
  O  O774  1  0.890909  0.000000  0.535138  1
  O  O775  1  0.855657  -0.000000  0.366008  1
  O  O776  1  0.993982  -0.000000  0.354637  1
  O  O777  1  0.044955  0.100020  0.777912  1
  O  O778  1  0.096629  0.201108  0.784991  1
  O  O779  1  0.131468  0.097299  0.771455  1
  O  O780  1  0.105660  0.094992  0.560734  1
  O  O781  1  0.131779  0.193034  0.714035  1
  O  O782  1  0.126795  0.249673  0.742129  1
  O  O783  1  0.126913  0.122945  0.740721  1
  O  O784  1  0.053286  0.189429  0.731166  1
  O  O785  1  0.045867  0.088786  0.583371  1
  O  O786  1  0.130005  0.123802  0.591308  1
  O  O787  1  0.206445  0.094316  0.754137  1
  O  O788  1  0.293645  0.405652  0.604535  1
  O  O789  1  0.129929  0.302526  0.770935  1
  O  O790  1  0.104790  0.306134  0.561216  1
  O  O791  1  0.044688  0.300722  0.777703  1
  O  O792  1  0.200668  0.199694  0.602682  1
  O  O793  1  0.299423  0.300280  0.755988  1
  O  O794  1  0.295953  0.202370  0.605097  1
  O  O795  1  0.204138  0.297602  0.753573  1
  O  O796  1  0.247253  0.198528  0.630280  1
  O  O797  1  0.252839  0.301436  0.728390  1
  O  O798  1  0.246298  0.302894  0.613062  1
  O  O799  1  0.253793  0.197076  0.745611  1
  O  O800  1  0.046238  0.302503  0.584923  1
  O  O801  1  0.005343  0.248796  0.752328  1
  O  O802  1  0.125824  0.250162  0.589219  1
  O  O803  1  0.123505  0.195582  0.617609  1
  O  O804  1  0.119276  0.376312  0.588535  1
  O  O805  1  0.181881  0.499987  0.700902  1
  O  O806  1  0.130136  0.410284  0.713380  1
  O  O807  1  0.052950  0.411157  0.731059  1
  O  O808  1  0.133682  0.375243  0.744119  1
  O  O809  1  0.123888  0.407292  0.618915  1
  O  O810  1  0.138187  0.499989  0.598384  1
  O  O811  1  0.199325  0.405476  0.603416  1
  O  O812  1  0.300766  0.094495  0.755256  1
  O  O813  1  0.246982  0.406971  0.630522  1
  O  O814  1  0.253109  0.093001  0.728149  1
  O  O815  1  0.168987  0.299692  0.664638  1
  O  O816  1  0.331104  0.200275  0.694034  1
  O  O817  1  0.211093  0.406598  0.658460  1
  O  O818  1  0.289000  0.093368  0.700211  1
  O  O819  1  0.153544  0.403152  0.682021  1
  O  O820  1  0.122451  0.392672  0.650302  1
  O  O821  1  0.041980  0.403066  0.630724  1
  O  O822  1  0.095038  0.299895  0.630669  1
  O  O823  1  0.201074  0.123961  0.703290  1
  O  O824  1  0.299019  0.376008  0.655381  1
  O  O825  1  0.268094  0.499983  0.651017  1
  O  O826  1  0.042733  0.197418  0.630105  1
  O  O827  1  0.212786  0.376376  0.705766  1
  O  O828  1  0.287307  0.123592  0.652905  1
  O  O829  1  0.287311  0.304679  0.699928  1
  O  O830  1  0.212780  0.195289  0.658743  1
  O  O831  1  0.206728  0.249348  0.704596  1
  O  O832  1  0.293362  0.250621  0.654074  1
  O  O833  1  0.154271  0.197878  0.682143  1
  O  O834  1  0.123709  0.206504  0.649791  1
  O  O835  1  0.003607  0.375726  0.754866  1
  O  O836  1  0.000000  0.122692  0.750420  1
  O  O837  1  -0.000000  0.499990  0.743479  1
  O  O838  1  0.116561  0.499989  0.734836  1
  O  O839  1  0.044951  0.899961  0.777913  1
  O  O840  1  0.096628  0.798874  0.784992  1
  O  O841  1  0.131465  0.902681  0.771455  1
  O  O842  1  0.105660  0.904990  0.560734  1
  O  O843  1  0.131775  0.806944  0.714035  1
  O  O844  1  0.126791  0.750307  0.742129  1
  O  O845  1  0.126909  0.877033  0.740721  1
  O  O846  1  0.053281  0.810550  0.731166  1
  O  O847  1  0.045872  0.911194  0.583373  1
  O  O848  1  0.109184  -0.000000  0.582126  1
  O  O849  1  0.130010  0.876180  0.591308  1
  O  O850  1  0.293649  0.594316  0.604536  1
  O  O851  1  0.206442  0.905657  0.754137  1
  O  O852  1  0.144433  0.000000  0.751255  1
  O  O853  1  0.129923  0.697453  0.770935  1
  O  O854  1  0.104789  0.693848  0.561217  1
  O  O855  1  0.044683  0.699261  0.777704  1
  O  O856  1  0.299418  0.699687  0.755990  1
  O  O857  1  0.200674  0.800285  0.602683  1
  O  O858  1  0.204133  0.702377  0.753574  1
  O  O859  1  0.295959  0.797591  0.605098  1
  O  O860  1  0.252836  0.698536  0.728391  1
  O  O861  1  0.247258  0.801438  0.630281  1
  O  O862  1  0.253793  0.802896  0.745612  1
  O  O863  1  0.246298  0.697075  0.613062  1
  O  O864  1  0.046243  0.697482  0.584924  1
  O  O865  1  0.005340  0.751185  0.752329  1
  O  O866  1  0.125830  0.749820  0.589219  1
  O  O867  1  0.123510  0.804400  0.617609  1
  O  O868  1  0.119280  0.623669  0.588534  1
  O  O869  1  0.130134  0.589691  0.713379  1
  O  O870  1  0.052949  0.588822  0.731059  1
  O  O871  1  0.133679  0.624737  0.744119  1
  O  O872  1  0.123890  0.592688  0.618915  1
  O  O873  1  0.300763  0.905477  0.755257  1
  O  O874  1  0.199328  0.594495  0.603416  1
  O  O875  1  0.253108  0.906971  0.728150  1
  O  O876  1  0.246984  0.592999  0.630523  1
  O  O877  1  0.331105  0.799692  0.694034  1
  O  O878  1  0.168989  0.700280  0.664638  1
  O  O879  1  0.288999  0.906600  0.700213  1
  O  O880  1  0.211094  0.593371  0.658460  1
  O  O881  1  0.153543  0.596820  0.682021  1
  O  O882  1  0.122452  0.607305  0.650301  1
  O  O883  1  0.041983  0.596917  0.630724  1
  O  O884  1  0.095042  0.700087  0.630669  1
  O  O885  1  0.299020  0.623957  0.655382  1
  O  O886  1  0.201073  0.876012  0.703291  1
  O  O887  1  0.231998  0.000000  0.707656  1
  O  O888  1  0.042739  0.802565  0.630106  1
  O  O889  1  0.287312  0.876372  0.652906  1
  O  O890  1  0.212783  0.623597  0.705767  1
  O  O891  1  0.212786  0.804678  0.658744  1
  O  O892  1  0.287307  0.695295  0.699929  1
  O  O893  1  0.293368  0.749343  0.654075  1
  O  O894  1  0.206723  0.750625  0.704597  1
  O  O895  1  0.154272  0.802095  0.682143  1
  O  O896  1  0.123716  0.793473  0.649791  1
  O  O897  1  0.318213  0.000000  0.657770  1
  O  O898  1  0.003607  0.624254  0.754867  1
  O  O899  1  -0.000000  0.877289  0.750420  1
  O  O900  1  0.006111  -0.000000  0.762626  1
  O  O901  1  0.455135  0.399948  0.580757  1
  O  O902  1  0.544955  0.399948  0.777911  1
  O  O903  1  0.403451  0.298865  0.573680  1
  O  O904  1  0.596638  0.298866  0.784989  1
  O  O905  1  0.368622  0.402681  0.587216  1
  O  O906  1  0.631467  0.402680  0.771453  1
  O  O907  1  0.394429  0.404978  0.797937  1
  O  O908  1  0.605660  0.404981  0.560732  1
  O  O909  1  0.368312  0.306931  0.644635  1
  O  O910  1  0.631779  0.306935  0.714033  1
  O  O911  1  0.373297  0.250295  0.616540  1
  O  O912  1  0.626794  0.250298  0.742128  1
  O  O913  1  0.373178  0.377022  0.617949  1
  O  O914  1  0.626913  0.377025  0.740719  1
  O  O915  1  0.446806  0.310540  0.627503  1
  O  O916  1  0.553285  0.310543  0.731165  1
  O  O917  1  0.454224  0.411185  0.775299  1
  O  O918  1  0.545865  0.411185  0.583369  1
  O  O919  1  0.370088  0.376171  0.767362  1
  O  O920  1  0.630002  0.376171  0.591306  1
  O  O921  1  0.355656  0.499981  0.607418  1
  O  O922  1  0.370162  0.197437  0.587736  1
  O  O923  1  0.629929  0.197441  0.770933  1
  O  O924  1  0.395299  0.193842  0.797454  1
  O  O925  1  0.604792  0.193842  0.561215  1
  O  O926  1  0.455403  0.199257  0.580966  1
  O  O927  1  0.544689  0.199256  0.777702  1
  O  O928  1  0.453854  0.197474  0.773748  1
  O  O929  1  0.546238  0.197473  0.584921  1
  O  O930  1  0.505343  0.251178  0.752327  1
  O  O931  1  0.494749  0.251176  0.606341  1
  O  O932  1  0.503610  0.124247  0.754866  1
  O  O933  1  0.496481  0.124245  0.603802  1
  O  O934  1  0.374267  0.249812  0.769451  1
  O  O935  1  0.625826  0.249811  0.589217  1
  O  O936  1  0.376585  0.304390  0.741061  1
  O  O937  1  0.623505  0.304391  0.617607  1
  O  O938  1  0.380817  0.123662  0.770136  1
  O  O939  1  0.619276  0.123661  0.588532  1
  O  O940  1  0.500944  0.377282  0.750419  1
  O  O941  1  0.499145  0.377280  0.608249  1
  O  O942  1  0.369957  0.089686  0.645292  1
  O  O943  1  0.630134  0.089687  0.713377  1
  O  O944  1  0.447140  0.088815  0.627611  1
  O  O945  1  0.552950  0.088815  0.731058  1
  O  O946  1  0.366406  0.124725  0.614552  1
  O  O947  1  0.633683  0.124728  0.744117  1
  O  O948  1  0.376203  0.092680  0.739756  1
  O  O949  1  0.623887  0.092680  0.618912  1
  O  O950  1  0.346549  0.096817  0.676650  1
  O  O951  1  0.653541  0.096818  0.682018  1
  O  O952  1  0.377642  0.107298  0.708370  1
  O  O953  1  0.622447  0.107299  0.650299  1
  O  O954  1  0.458111  0.096904  0.727948  1
  O  O955  1  0.541979  0.096906  0.630720  1
  O  O956  1  0.405055  0.200077  0.728002  1
  O  O957  1  0.595036  0.200078  0.630667  1
  O  O958  1  0.457357  0.302557  0.728565  1
  O  O959  1  0.542734  0.302557  0.630103  1
  O  O960  1  0.345821  0.302087  0.676527  1
  O  O961  1  0.654270  0.302091  0.682142  1
  O  O962  1  0.376382  0.293464  0.708879  1
  O  O963  1  0.623708  0.293467  0.649789  1
  O  O964  1  0.609181  0.499981  0.582124  1
  O  O965  1  0.390909  0.499981  0.776545  1
  O  O966  1  0.644437  0.499982  0.751252  1
  O  O967  1  0.493978  0.499981  0.596043  1
  O  O968  1  0.506112  0.499982  0.762626  1
  O  O969  1  0.544951  0.600016  0.777912  1
  O  O970  1  0.455139  0.600016  0.580759  1
  O  O971  1  0.596639  0.701096  0.784989  1
  O  O972  1  0.403452  0.701095  0.573681  1
  O  O973  1  0.631464  0.597280  0.771453  1
  O  O974  1  0.368626  0.597282  0.587217  1
  O  O975  1  0.605659  0.594982  0.560732  1
  O  O976  1  0.394432  0.594978  0.797938  1
  O  O977  1  0.631775  0.693030  0.714033  1
  O  O978  1  0.368318  0.693027  0.644638  1
  O  O979  1  0.626790  0.749666  0.742128  1
  O  O980  1  0.373302  0.749663  0.616543  1
  O  O981  1  0.626909  0.622939  0.740719  1
  O  O982  1  0.373183  0.622936  0.617951  1
  O  O983  1  0.553281  0.689421  0.731165  1
  O  O984  1  0.446811  0.689418  0.627505  1
  O  O985  1  0.545870  0.588779  0.583371  1
  O  O986  1  0.454221  0.588779  0.775299  1
  O  O987  1  0.630006  0.623791  0.591306  1
  O  O988  1  0.370084  0.623794  0.767365  1
  O  O989  1  0.629923  0.802526  0.770933  1
  O  O990  1  0.370169  0.802522  0.587738  1
  O  O991  1  0.604791  0.806119  0.561215  1
  O  O992  1  0.395301  0.806122  0.797456  1
  O  O993  1  0.544684  0.800701  0.777703  1
  O  O994  1  0.455408  0.800698  0.580967  1
  O  O995  1  0.546243  0.802486  0.584923  1
  O  O996  1  0.453850  0.802491  0.773748  1
  O  O997  1  0.494752  0.748783  0.606343  1
  O  O998  1  0.505339  0.748786  0.752328  1
  O  O999  1  0.496482  0.875714  0.603803  1
  O  O1000  1  0.503610  0.875716  0.754867  1
  O  O1001  1  0.625831  0.750150  0.589217  1
  O  O1002  1  0.374262  0.750153  0.769454  1
  O  O1003  1  0.623510  0.695571  0.617607  1
  O  O1004  1  0.376581  0.695573  0.741064  1
  O  O1005  1  0.619280  0.876301  0.588532  1
  O  O1006  1  0.380812  0.876304  0.770138  1
  O  O1007  1  0.499148  0.622679  0.608251  1
  O  O1008  1  0.500943  0.622682  0.750420  1
  O  O1009  1  0.630131  0.910281  0.713376  1
  O  O1010  1  0.369961  0.910280  0.645294  1
  O  O1011  1  0.552949  0.911148  0.731058  1
  O  O1012  1  0.447144  0.911148  0.627612  1
  O  O1013  1  0.633681  0.875235  0.744116  1
  O  O1014  1  0.366411  0.875232  0.614554  1
  O  O1015  1  0.616561  0.000000  0.734834  1
  O  O1016  1  0.383531  -0.000000  0.623836  1
  O  O1017  1  0.623890  0.907283  0.618912  1
  O  O1018  1  0.376201  0.907283  0.739758  1
  O  O1019  1  0.638187  0.000000  0.598381  1
  O  O1020  1  0.361905  0.000000  0.760288  1
  O  O1021  1  0.653541  0.903154  0.682018  1
  O  O1022  1  0.346551  0.903153  0.676652  1
  O  O1023  1  0.622450  0.892668  0.650299  1
  O  O1024  1  0.377641  0.892667  0.708371  1
  O  O1025  1  0.541982  0.903057  0.630720  1
  O  O1026  1  0.458110  0.903056  0.727949  1
  O  O1027  1  0.595040  0.799885  0.630667  1
  O  O1028  1  0.405051  0.799885  0.728004  1
  O  O1029  1  0.499960  0.000000  0.615190  1
  O  O1030  1  0.500131  0.000000  0.743479  1
  O  O1031  1  0.542740  0.697404  0.630104  1
  O  O1032  1  0.457352  0.697405  0.728567  1
  O  O1033  1  0.654271  0.697880  0.682142  1
  O  O1034  1  0.345820  0.697876  0.676529  1
  O  O1035  1  0.623715  0.706500  0.649789  1
  O  O1036  1  0.376376  0.706499  0.708882  1
  O  O1037  1  0.955137  0.100018  0.580759  1
  O  O1038  1  0.903465  0.201108  0.573680  1
  O  O1039  1  0.868624  0.097300  0.587216  1
  O  O1040  1  0.894432  0.094995  0.797937  1
  O  O1041  1  0.868311  0.193037  0.644635  1
  O  O1042  1  0.873296  0.249676  0.616541  1
  O  O1043  1  0.873178  0.122949  0.617949  1
  O  O1044  1  0.946805  0.189432  0.627504  1
  O  O1045  1  0.954225  0.088786  0.775300  1
  O  O1046  1  0.870087  0.123800  0.767363  1
  O  O1047  1  0.793646  0.094321  0.604533  1
  O  O1048  1  0.706446  0.405650  0.754135  1
  O  O1049  1  0.870162  0.302527  0.587736  1
  O  O1050  1  0.895300  0.306131  0.797454  1
  O  O1051  1  0.955403  0.300728  0.580968  1
  O  O1052  1  0.799423  0.199689  0.755987  1
  O  O1053  1  0.700668  0.300284  0.602681  1
  O  O1054  1  0.704138  0.202371  0.753572  1
  O  O1055  1  0.795954  0.297604  0.605097  1
  O  O1056  1  0.752838  0.198529  0.728389  1
  O  O1057  1  0.747252  0.301441  0.630280  1
  O  O1058  1  0.753796  0.302893  0.745608  1
  O  O1059  1  0.746296  0.197080  0.613059  1
  O  O1060  1  0.953852  0.302498  0.773748  1
  O  O1061  1  0.994748  0.248798  0.606342  1
  O  O1062  1  0.874265  0.250160  0.769452  1
  O  O1063  1  0.876587  0.195580  0.741062  1
  O  O1064  1  0.880815  0.376310  0.770136  1
  O  O1065  1  0.869954  0.410286  0.645291  1
  O  O1066  1  0.947140  0.411158  0.627612  1
  O  O1067  1  0.866409  0.375246  0.614552  1
  O  O1068  1  0.876204  0.407293  0.739756  1
  O  O1069  1  0.800766  0.405475  0.755254  1
  O  O1070  1  0.699325  0.094496  0.603414  1
  O  O1071  1  0.753109  0.406970  0.728148  1
  O  O1072  1  0.746982  0.093004  0.630520  1
  O  O1073  1  0.831105  0.299694  0.694033  1
  O  O1074  1  0.668984  0.200277  0.664636  1
  O  O1075  1  0.789000  0.406602  0.700210  1
  O  O1076  1  0.711090  0.093371  0.658457  1
  O  O1077  1  0.846548  0.403153  0.676650  1
  O  O1078  1  0.877642  0.392673  0.708369  1
  O  O1079  1  0.958111  0.403065  0.727948  1
  O  O1080  1  0.905053  0.299894  0.728002  1
  O  O1081  1  0.799016  0.123964  0.655380  1
  O  O1082  1  0.701074  0.376011  0.703288  1
  O  O1083  1  0.818210  0.499989  0.657770  1
  O  O1084  1  0.957358  0.197417  0.728566  1
  O  O1085  1  0.787305  0.376379  0.652905  1
  O  O1086  1  0.712784  0.123595  0.705763  1
  O  O1087  1  0.712779  0.304680  0.658742  1
  O  O1088  1  0.787312  0.195291  0.699927  1
  O  O1089  1  0.793363  0.249351  0.654074  1
  O  O1090  1  0.706729  0.250624  0.704594  1
  O  O1091  1  0.845820  0.197881  0.676527  1
  O  O1092  1  0.876382  0.206505  0.708880  1
  O  O1093  1  0.996484  0.375729  0.603806  1
  O  O1094  1  0.731998  0.499986  0.707654  1
  O  O1095  1  0.861904  0.499988  0.760288  1
  O  O1096  1  0.000000  0.122694  0.608251  1
  O  O1097  1  0.883531  0.499992  0.623835  1
  O  O1098  1  -0.000000  0.499992  0.615194  1
  O  O1099  1  0.955142  0.899959  0.580760  1
  O  O1100  1  0.903464  0.798875  0.573680  1
  O  O1101  1  0.868629  0.902684  0.587217  1
  O  O1102  1  0.894434  0.904992  0.797939  1
  O  O1103  1  0.868316  0.806948  0.644637  1
  O  O1104  1  0.873301  0.750311  0.616543  1
  O  O1105  1  0.873182  0.877037  0.617951  1
  O  O1106  1  0.946810  0.810553  0.627506  1
  O  O1107  1  0.954221  0.911193  0.775299  1
  O  O1108  1  0.870084  0.876179  0.767365  1
  O  O1109  1  0.706442  0.594320  0.754135  1
  O  O1110  1  0.793650  0.905655  0.604534  1
  O  O1111  1  0.870168  0.697455  0.587738  1
  O  O1112  1  0.895301  0.693848  0.797456  1
  O  O1113  1  0.955408  0.699263  0.580968  1
  O  O1114  1  0.700674  0.699682  0.602681  1
  O  O1115  1  0.799418  0.800288  0.755989  1
  O  O1116  1  0.795959  0.702378  0.605098  1
  O  O1117  1  0.704133  0.797594  0.753573  1
  O  O1118  1  0.747257  0.698537  0.630280  1
  O  O1119  1  0.752834  0.801442  0.728390  1
  O  O1120  1  0.746297  0.802896  0.613059  1
  O  O1121  1  0.753795  0.697078  0.745609  1
  O  O1122  1  0.953848  0.697480  0.773748  1
  O  O1123  1  0.994751  0.751187  0.606344  1
  O  O1124  1  0.874260  0.749819  0.769454  1
  O  O1125  1  0.876582  0.804400  0.741064  1
  O  O1126  1  0.880810  0.623668  0.770138  1
  O  O1127  1  0.869958  0.589692  0.645293  1
  O  O1128  1  0.947143  0.588824  0.627613  1
  O  O1129  1  0.866413  0.624740  0.614554  1
  O  O1130  1  0.000000  0.877290  0.608252  1
  O  O1131  1  0.876202  0.592688  0.739758  1
  O  O1132  1  0.699329  0.905478  0.603414  1
  O  O1133  1  0.800763  0.594496  0.755255  1
  O  O1134  1  0.746984  0.906970  0.630521  1
  O  O1135  1  0.753107  0.593001  0.728149  1
  O  O1136  1  0.668987  0.799694  0.664636  1
  O  O1137  1  0.831105  0.700282  0.694034  1
  O  O1138  1  0.711091  0.906603  0.658458  1
  O  O1139  1  0.788999  0.593375  0.700212  1
  O  O1140  1  0.846549  0.596820  0.676651  1
  O  O1141  1  0.877640  0.607306  0.708371  1
  O  O1142  1  0.958109  0.596917  0.727949  1
  O  O1143  1  0.905050  0.700087  0.728003  1
  O  O1144  1  0.701072  0.623960  0.703289  1
  O  O1145  1  0.799018  0.876016  0.655381  1
  O  O1146  1  0.957353  0.802565  0.728567  1
  O  O1147  1  0.712781  0.876375  0.705764  1
  O  O1148  1  0.787310  0.623600  0.652906  1
  O  O1149  1  0.787307  0.804679  0.699928  1
  O  O1150  1  0.712785  0.695296  0.658743  1
  O  O1151  1  0.706725  0.749346  0.704596  1
  O  O1152  1  0.793368  0.750629  0.654075  1
  O  O1153  1  0.845820  0.802099  0.676529  1
  O  O1154  1  0.876377  0.793474  0.708882  1
  O  O1155  1  0.681879  -0.000000  0.700899  1
  O  O1156  1  0.996485  0.624256  0.603806  1
  O  O1157  1  0.768092  0.000000  0.651014  1
  O  O1158  1  0.890909  0.000000  0.776546  1
  O  O1159  1  0.855657  0.000000  0.607416  1
  O  O1160  1  0.993982  0.000000  0.596045  1
  O  O1161  1  0.105660  0.094992  0.802142  1
  O  O1162  1  0.104790  0.306134  0.802625  1
  O  O1163  1  0.105660  0.904990  0.802142  1
  O  O1164  1  0.104789  0.693848  0.802625  1
  O  O1165  1  0.605660  0.404981  0.802140  1
  O  O1166  1  0.604792  0.193842  0.802623  1
  O  O1167  1  0.605659  0.594982  0.802141  1
  O  O1168  1  0.604791  0.806119  0.802623  1
  Si  Si1169  1  0.252460  0.275408  0.263827  1
  Si  Si1170  1  0.004540  0.188612  0.257049  1
  Si  Si1171  1  0.109277  0.188287  0.248601  1
  Si  Si1172  1  0.001416  0.308045  0.282029  1
  Si  Si1173  1  0.145454  0.190890  0.117412  1
  Si  Si1174  1  0.095726  0.123015  0.301371  1
  Si  Si1175  1  0.099140  0.310078  0.097632  1
  Si  Si1176  1  0.247631  0.224562  0.129211  1
  Si  Si1177  1  0.108412  0.422871  0.247976  1
  Si  Si1178  1  0.145033  0.422964  0.118962  1
  Si  Si1179  1  0.099180  0.076953  0.096566  1
  Si  Si1180  1  0.246975  0.381162  0.129489  1
  Si  Si1181  1  0.253116  0.118808  0.263549  1
  Si  Si1182  1  0.152048  0.077465  0.271634  1
  Si  Si1183  1  0.163010  0.377463  0.181234  1
  Si  Si1184  1  0.171261  0.190135  0.218240  1
  Si  Si1185  1  0.094764  0.377548  0.150354  1
  Si  Si1186  1  0.243036  0.077160  0.226576  1
  Si  Si1187  1  0.257057  0.422809  0.166463  1
  Si  Si1188  1  0.095564  0.279396  0.301631  1
  Si  Si1189  1  0.169403  0.422711  0.217644  1
  Si  Si1190  1  0.240491  0.309106  0.226604  1
  Si  Si1191  1  0.259600  0.190861  0.166433  1
  Si  Si1192  1  0.148952  0.307764  0.270224  1
  Si  Si1193  1  0.163279  0.221742  0.181066  1
  Si  Si1194  1  0.095925  0.221897  0.149859  1
  Si  Si1195  1  0.330690  0.077258  0.175395  1
  Si  Si1196  1  0.328831  0.309832  0.174797  1
  Si  Si1197  1  0.001586  0.077408  0.283518  1
  Si  Si1198  1  0.003767  0.422745  0.256338  1
  Si  Si1199  1  0.247635  0.775407  0.129212  1
  Si  Si1200  1  0.252457  0.724564  0.263828  1
  Si  Si1201  1  0.003766  0.577236  0.256338  1
  Si  Si1202  1  0.001583  0.922573  0.283519  1
  Si  Si1203  1  0.004536  0.811368  0.257050  1
  Si  Si1204  1  0.109273  0.811692  0.248601  1
  Si  Si1205  1  0.001412  0.691935  0.282029  1
  Si  Si1206  1  0.145460  0.809092  0.117412  1
  Si  Si1207  1  0.095723  0.876967  0.301371  1
  Si  Si1208  1  0.099144  0.689905  0.097633  1
  Si  Si1209  1  0.171258  0.809839  0.218241  1
  Si  Si1210  1  0.108410  0.577107  0.247975  1
  Si  Si1211  1  0.145035  0.577014  0.118962  1
  Si  Si1212  1  0.099184  0.923029  0.096566  1
  Si  Si1213  1  0.253113  0.881164  0.263550  1
  Si  Si1214  1  0.246978  0.618807  0.129490  1
  Si  Si1215  1  0.152046  0.922512  0.271634  1
  Si  Si1216  1  0.095560  0.720585  0.301632  1
  Si  Si1217  1  0.163011  0.622509  0.181234  1
  Si  Si1218  1  0.094767  0.622433  0.150353  1
  Si  Si1219  1  0.257058  0.577158  0.166463  1
  Si  Si1220  1  0.243035  0.922811  0.226576  1
  Si  Si1221  1  0.169401  0.577262  0.217643  1
  Si  Si1222  1  0.095931  0.778084  0.149859  1
  Si  Si1223  1  0.259606  0.809104  0.166435  1
  Si  Si1224  1  0.240487  0.690867  0.226605  1
  Si  Si1225  1  0.148947  0.692215  0.270224  1
  Si  Si1226  1  0.163283  0.778230  0.181067  1
  Si  Si1227  1  0.328834  0.690131  0.174798  1
  Si  Si1228  1  0.330693  0.922709  0.175396  1
  Si  Si1229  1  0.390814  0.311680  0.144436  1
  Si  Si1230  1  0.609277  0.311683  0.248600  1
  Si  Si1231  1  0.501417  0.191929  0.282028  1
  Si  Si1232  1  0.498675  0.191928  0.111007  1
  Si  Si1233  1  0.354637  0.309083  0.275624  1
  Si  Si1234  1  0.645454  0.309084  0.117411  1
  Si  Si1235  1  0.404361  0.376958  0.091666  1
  Si  Si1236  1  0.595728  0.376959  0.301369  1
  Si  Si1237  1  0.400952  0.189898  0.295405  1
  Si  Si1238  1  0.599141  0.189897  0.097630  1
  Si  Si1239  1  0.501585  0.422564  0.283518  1
  Si  Si1240  1  0.498504  0.422563  0.109517  1
  Si  Si1241  1  0.391679  0.077099  0.145062  1
  Si  Si1242  1  0.608411  0.077100  0.247973  1
  Si  Si1243  1  0.355059  0.077009  0.274076  1
  Si  Si1244  1  0.645033  0.077008  0.118960  1
  Si  Si1245  1  0.400911  0.423019  0.296471  1
  Si  Si1246  1  0.599178  0.423019  0.096564  1
  Si  Si1247  1  0.348042  0.422505  0.121404  1
  Si  Si1248  1  0.652050  0.422506  0.271632  1
  Si  Si1249  1  0.405328  0.122423  0.242685  1
  Si  Si1250  1  0.594762  0.122424  0.150351  1
  Si  Si1251  1  0.503768  0.077226  0.256338  1
  Si  Si1252  1  0.496322  0.077226  0.136697  1
  Si  Si1253  1  0.504540  0.311361  0.257048  1
  Si  Si1254  1  0.495551  0.311359  0.135987  1
  Si  Si1255  1  0.351138  0.192203  0.122814  1
  Si  Si1256  1  0.648952  0.192206  0.270221  1
  Si  Si1257  1  0.336812  0.278225  0.211971  1
  Si  Si1258  1  0.663277  0.278227  0.181064  1
  Si  Si1259  1  0.404166  0.278074  0.243178  1
  Si  Si1260  1  0.595925  0.278075  0.149857  1
  Si  Si1261  1  0.595567  0.220577  0.301629  1
  Si  Si1262  1  0.404524  0.220576  0.091406  1
  Si  Si1263  1  0.663006  0.122506  0.181232  1
  Si  Si1264  1  0.337083  0.122504  0.211804  1
  Si  Si1265  1  0.337083  0.877463  0.211805  1
  Si  Si1266  1  0.663008  0.877465  0.181231  1
  Si  Si1267  1  0.595564  0.779384  0.301630  1
  Si  Si1268  1  0.404528  0.779383  0.091407  1
  Si  Si1269  1  0.404161  0.721888  0.243180  1
  Si  Si1270  1  0.609273  0.688281  0.248600  1
  Si  Si1271  1  0.390819  0.688278  0.144438  1
  Si  Si1272  1  0.498679  0.808030  0.111008  1
  Si  Si1273  1  0.501414  0.808034  0.282029  1
  Si  Si1274  1  0.645460  0.690878  0.117411  1
  Si  Si1275  1  0.354632  0.690881  0.275627  1
  Si  Si1276  1  0.595725  0.623003  0.301369  1
  Si  Si1277  1  0.404365  0.623002  0.091668  1
  Si  Si1278  1  0.599144  0.810064  0.097631  1
  Si  Si1279  1  0.400948  0.810067  0.295406  1
  Si  Si1280  1  0.498508  0.577398  0.109519  1
  Si  Si1281  1  0.501583  0.577399  0.283518  1
  Si  Si1282  1  0.608409  0.922864  0.247973  1
  Si  Si1283  1  0.391683  0.922863  0.145064  1
  Si  Si1284  1  0.645035  0.922958  0.118959  1
  Si  Si1285  1  0.355057  0.922958  0.274078  1
  Si  Si1286  1  0.599181  0.576943  0.096564  1
  Si  Si1287  1  0.400909  0.576942  0.296473  1
  Si  Si1288  1  0.652047  0.577459  0.271632  1
  Si  Si1289  1  0.348044  0.577457  0.121405  1
  Si  Si1290  1  0.594766  0.877539  0.150350  1
  Si  Si1291  1  0.405326  0.877539  0.242687  1
  Si  Si1292  1  0.496324  0.922735  0.136698  1
  Si  Si1293  1  0.503767  0.922735  0.256338  1
  Si  Si1294  1  0.495556  0.688600  0.135989  1
  Si  Si1295  1  0.504536  0.688602  0.257048  1
  Si  Si1296  1  0.648948  0.807758  0.270222  1
  Si  Si1297  1  0.351145  0.807755  0.122816  1
  Si  Si1298  1  0.663281  0.721744  0.181065  1
  Si  Si1299  1  0.336809  0.721742  0.211972  1
  Si  Si1300  1  0.595931  0.721888  0.149858  1
  Si  Si1301  1  0.747631  0.275412  0.129210  1
  Si  Si1302  1  0.752460  0.224560  0.263825  1
  Si  Si1303  1  0.669401  0.077260  0.217641  1
  Si  Si1304  1  0.671261  0.309836  0.218239  1
  Si  Si1305  1  0.995551  0.188615  0.135988  1
  Si  Si1306  1  0.996324  0.422746  0.136701  1
  Si  Si1307  1  0.890813  0.188290  0.144436  1
  Si  Si1308  1  0.998675  0.308049  0.111009  1
  Si  Si1309  1  0.854637  0.190888  0.275625  1
  Si  Si1310  1  0.904367  0.123016  0.091667  1
  Si  Si1311  1  0.900950  0.310074  0.295405  1
  Si  Si1312  1  0.828829  0.190138  0.174797  1
  Si  Si1313  1  0.891679  0.422873  0.145062  1
  Si  Si1314  1  0.855058  0.422963  0.274075  1
  Si  Si1315  1  0.900912  0.076953  0.296472  1
  Si  Si1316  1  0.753116  0.381161  0.263547  1
  Si  Si1317  1  0.746975  0.118812  0.129487  1
  Si  Si1318  1  0.848042  0.077467  0.121403  1
  Si  Si1319  1  0.837083  0.377465  0.211803  1
  Si  Si1320  1  0.904528  0.279397  0.091406  1
  Si  Si1321  1  0.905328  0.377547  0.242684  1
  Si  Si1322  1  0.757055  0.077163  0.166461  1
  Si  Si1323  1  0.743035  0.422811  0.226574  1
  Si  Si1324  1  0.830687  0.422713  0.175394  1
  Si  Si1325  1  0.904166  0.221896  0.243178  1
  Si  Si1326  1  0.759600  0.309109  0.166433  1
  Si  Si1327  1  0.740490  0.190863  0.226602  1
  Si  Si1328  1  0.851139  0.307767  0.122814  1
  Si  Si1329  1  0.836813  0.221744  0.211971  1
  Si  Si1330  1  0.998506  0.077408  0.109519  1
  Si  Si1331  1  0.671258  0.690134  0.218239  1
  Si  Si1332  1  0.669399  0.922710  0.217641  1
  Si  Si1333  1  0.752458  0.775411  0.263826  1
  Si  Si1334  1  0.747634  0.724563  0.129210  1
  Si  Si1335  1  0.828833  0.809843  0.174798  1
  Si  Si1336  1  0.890819  0.811696  0.144438  1
  Si  Si1337  1  0.998679  0.691937  0.111010  1
  Si  Si1338  1  0.854632  0.809092  0.275627  1
  Si  Si1339  1  0.904370  0.876968  0.091668  1
  Si  Si1340  1  0.900946  0.689904  0.295406  1
  Si  Si1341  1  0.904531  0.720586  0.091408  1
  Si  Si1342  1  0.891682  0.577109  0.145063  1
  Si  Si1343  1  0.855056  0.577014  0.274077  1
  Si  Si1344  1  0.900910  0.923030  0.296473  1
  Si  Si1345  1  0.746978  0.881163  0.129488  1
  Si  Si1346  1  0.753113  0.618810  0.263548  1
  Si  Si1347  1  0.848045  0.922515  0.121404  1
  Si  Si1348  1  0.830690  0.577263  0.175395  1
  Si  Si1349  1  0.837082  0.622511  0.211805  1
  Si  Si1350  1  0.905325  0.622434  0.242686  1
  Si  Si1351  1  0.743034  0.577161  0.226575  1
  Si  Si1352  1  0.757056  0.922814  0.166461  1
  Si  Si1353  1  0.904161  0.778085  0.243180  1
  Si  Si1354  1  0.836811  0.778232  0.211972  1
  Si  Si1355  1  0.740487  0.809107  0.226603  1
  Si  Si1356  1  0.759605  0.690870  0.166433  1
  Si  Si1357  1  0.851145  0.692218  0.122816  1
  Si  Si1358  1  0.995556  0.811370  0.135990  1
  Si  Si1359  1  0.998510  0.922573  0.109520  1
  Si  Si1360  1  0.996326  0.577237  0.136701  1
  Si  Si1361  1  0.252460  0.275408  0.505235  1
  Si  Si1362  1  0.004540  0.188612  0.498457  1
  Si  Si1363  1  0.109277  0.188287  0.490010  1
  Si  Si1364  1  0.001416  0.308045  0.523437  1
  Si  Si1365  1  0.145454  0.190890  0.358821  1
  Si  Si1366  1  0.095726  0.123015  0.542779  1
  Si  Si1367  1  0.099140  0.310078  0.339040  1
  Si  Si1368  1  0.247631  0.224562  0.370619  1
  Si  Si1369  1  0.108412  0.422871  0.489384  1
  Si  Si1370  1  0.145033  0.422964  0.360371  1
  Si  Si1371  1  0.099180  0.076953  0.337974  1
  Si  Si1372  1  0.246975  0.381162  0.370898  1
  Si  Si1373  1  0.253116  0.118808  0.504957  1
  Si  Si1374  1  0.152048  0.077465  0.513042  1
  Si  Si1375  1  0.163010  0.377463  0.422643  1
  Si  Si1376  1  0.171261  0.190135  0.459648  1
  Si  Si1377  1  0.094764  0.377548  0.391762  1
  Si  Si1378  1  0.243036  0.077160  0.467984  1
  Si  Si1379  1  0.257057  0.422809  0.407871  1
  Si  Si1380  1  0.095564  0.279396  0.543039  1
  Si  Si1381  1  0.169403  0.422711  0.459052  1
  Si  Si1382  1  0.240491  0.309106  0.468012  1
  Si  Si1383  1  0.259600  0.190861  0.407842  1
  Si  Si1384  1  0.148952  0.307764  0.511632  1
  Si  Si1385  1  0.163279  0.221742  0.422474  1
  Si  Si1386  1  0.095925  0.221897  0.391268  1
  Si  Si1387  1  0.330690  0.077258  0.416803  1
  Si  Si1388  1  0.328831  0.309832  0.416205  1
  Si  Si1389  1  0.001586  0.077408  0.524927  1
  Si  Si1390  1  0.003767  0.422745  0.497746  1
  Si  Si1391  1  0.247635  0.775407  0.370620  1
  Si  Si1392  1  0.252457  0.724564  0.505237  1
  Si  Si1393  1  0.003766  0.577236  0.497747  1
  Si  Si1394  1  0.001583  0.922573  0.524927  1
  Si  Si1395  1  0.004536  0.811368  0.498458  1
  Si  Si1396  1  0.109273  0.811692  0.490010  1
  Si  Si1397  1  0.001412  0.691935  0.523438  1
  Si  Si1398  1  0.145460  0.809092  0.358821  1
  Si  Si1399  1  0.095723  0.876967  0.542780  1
  Si  Si1400  1  0.099144  0.689905  0.339041  1
  Si  Si1401  1  0.171258  0.809839  0.459649  1
  Si  Si1402  1  0.108410  0.577107  0.489384  1
  Si  Si1403  1  0.145035  0.577014  0.360370  1
  Si  Si1404  1  0.099184  0.923029  0.337974  1
  Si  Si1405  1  0.253113  0.881164  0.504958  1
  Si  Si1406  1  0.246978  0.618807  0.370898  1
  Si  Si1407  1  0.152046  0.922512  0.513043  1
  Si  Si1408  1  0.095560  0.720585  0.543040  1
  Si  Si1409  1  0.163011  0.622509  0.422643  1
  Si  Si1410  1  0.094767  0.622433  0.391762  1
  Si  Si1411  1  0.257058  0.577158  0.407872  1
  Si  Si1412  1  0.243035  0.922811  0.467985  1
  Si  Si1413  1  0.169401  0.577262  0.459052  1
  Si  Si1414  1  0.095931  0.778084  0.391268  1
  Si  Si1415  1  0.259606  0.809104  0.407843  1
  Si  Si1416  1  0.240487  0.690867  0.468014  1
  Si  Si1417  1  0.148947  0.692215  0.511632  1
  Si  Si1418  1  0.163283  0.778230  0.422475  1
  Si  Si1419  1  0.328834  0.690131  0.416207  1
  Si  Si1420  1  0.330693  0.922709  0.416804  1
  Si  Si1421  1  0.390814  0.311680  0.385844  1
  Si  Si1422  1  0.609277  0.311683  0.490008  1
  Si  Si1423  1  0.501417  0.191929  0.523436  1
  Si  Si1424  1  0.498675  0.191928  0.352415  1
  Si  Si1425  1  0.354637  0.309083  0.517033  1
  Si  Si1426  1  0.645454  0.309084  0.358819  1
  Si  Si1427  1  0.404361  0.376958  0.333075  1
  Si  Si1428  1  0.595728  0.376959  0.542777  1
  Si  Si1429  1  0.400952  0.189898  0.536813  1
  Si  Si1430  1  0.599141  0.189897  0.339039  1
  Si  Si1431  1  0.501585  0.422564  0.524926  1
  Si  Si1432  1  0.498504  0.422563  0.350926  1
  Si  Si1433  1  0.391679  0.077099  0.386471  1
  Si  Si1434  1  0.608411  0.077100  0.489382  1
  Si  Si1435  1  0.355059  0.077009  0.515485  1
  Si  Si1436  1  0.645033  0.077008  0.360368  1
  Si  Si1437  1  0.400911  0.423019  0.537880  1
  Si  Si1438  1  0.599178  0.423019  0.337972  1
  Si  Si1439  1  0.348042  0.422505  0.362812  1
  Si  Si1440  1  0.652050  0.422506  0.513040  1
  Si  Si1441  1  0.405328  0.122423  0.484093  1
  Si  Si1442  1  0.594762  0.122424  0.391759  1
  Si  Si1443  1  0.503768  0.077226  0.497746  1
  Si  Si1444  1  0.496322  0.077226  0.378106  1
  Si  Si1445  1  0.504540  0.311361  0.498456  1
  Si  Si1446  1  0.495551  0.311359  0.377395  1
  Si  Si1447  1  0.351138  0.192203  0.364222  1
  Si  Si1448  1  0.648952  0.192206  0.511630  1
  Si  Si1449  1  0.336812  0.278225  0.453379  1
  Si  Si1450  1  0.663277  0.278227  0.422473  1
  Si  Si1451  1  0.404166  0.278074  0.484586  1
  Si  Si1452  1  0.595925  0.278075  0.391266  1
  Si  Si1453  1  0.595567  0.220577  0.543037  1
  Si  Si1454  1  0.404524  0.220576  0.332814  1
  Si  Si1455  1  0.663006  0.122506  0.422640  1
  Si  Si1456  1  0.337083  0.122504  0.453212  1
  Si  Si1457  1  0.337083  0.877463  0.453214  1
  Si  Si1458  1  0.663008  0.877465  0.422640  1
  Si  Si1459  1  0.595564  0.779384  0.543038  1
  Si  Si1460  1  0.404528  0.779383  0.332816  1
  Si  Si1461  1  0.404161  0.721888  0.484588  1
  Si  Si1462  1  0.609273  0.688281  0.490008  1
  Si  Si1463  1  0.390819  0.688278  0.385846  1
  Si  Si1464  1  0.498679  0.808030  0.352417  1
  Si  Si1465  1  0.501414  0.808034  0.523437  1
  Si  Si1466  1  0.645460  0.690878  0.358819  1
  Si  Si1467  1  0.354632  0.690881  0.517035  1
  Si  Si1468  1  0.595725  0.623003  0.542778  1
  Si  Si1469  1  0.404365  0.623002  0.333076  1
  Si  Si1470  1  0.599144  0.810064  0.339039  1
  Si  Si1471  1  0.400948  0.810067  0.536815  1
  Si  Si1472  1  0.498508  0.577398  0.350927  1
  Si  Si1473  1  0.501583  0.577399  0.524927  1
  Si  Si1474  1  0.608409  0.922864  0.489381  1
  Si  Si1475  1  0.391683  0.922863  0.386472  1
  Si  Si1476  1  0.645035  0.922958  0.360367  1
  Si  Si1477  1  0.355057  0.922958  0.515486  1
  Si  Si1478  1  0.599181  0.576943  0.337973  1
  Si  Si1479  1  0.400909  0.576942  0.537881  1
  Si  Si1480  1  0.652047  0.577459  0.513040  1
  Si  Si1481  1  0.348044  0.577457  0.362814  1
  Si  Si1482  1  0.594766  0.877539  0.391758  1
  Si  Si1483  1  0.405326  0.877539  0.484095  1
  Si  Si1484  1  0.496324  0.922735  0.378106  1
  Si  Si1485  1  0.503767  0.922735  0.497747  1
  Si  Si1486  1  0.495556  0.688600  0.377397  1
  Si  Si1487  1  0.504536  0.688602  0.498457  1
  Si  Si1488  1  0.648948  0.807758  0.511630  1
  Si  Si1489  1  0.351145  0.807755  0.364224  1
  Si  Si1490  1  0.663281  0.721744  0.422474  1
  Si  Si1491  1  0.336809  0.721742  0.453381  1
  Si  Si1492  1  0.595931  0.721888  0.391266  1
  Si  Si1493  1  0.747631  0.275412  0.370618  1
  Si  Si1494  1  0.752460  0.224560  0.505233  1
  Si  Si1495  1  0.669401  0.077260  0.459049  1
  Si  Si1496  1  0.671261  0.309836  0.459647  1
  Si  Si1497  1  0.995551  0.188615  0.377397  1
  Si  Si1498  1  0.996324  0.422746  0.378109  1
  Si  Si1499  1  0.890813  0.188290  0.385844  1
  Si  Si1500  1  0.998675  0.308049  0.352417  1
  Si  Si1501  1  0.854637  0.190888  0.517033  1
  Si  Si1502  1  0.904367  0.123016  0.333075  1
  Si  Si1503  1  0.900950  0.310074  0.536813  1
  Si  Si1504  1  0.828829  0.190138  0.416205  1
  Si  Si1505  1  0.891679  0.422873  0.386470  1
  Si  Si1506  1  0.855058  0.422963  0.515484  1
  Si  Si1507  1  0.900912  0.076953  0.537880  1
  Si  Si1508  1  0.753116  0.381161  0.504956  1
  Si  Si1509  1  0.746975  0.118812  0.370895  1
  Si  Si1510  1  0.848042  0.077467  0.362811  1
  Si  Si1511  1  0.837083  0.377465  0.453212  1
  Si  Si1512  1  0.904528  0.279397  0.332815  1
  Si  Si1513  1  0.905328  0.377547  0.484093  1
  Si  Si1514  1  0.757055  0.077163  0.407869  1
  Si  Si1515  1  0.743035  0.422811  0.467982  1
  Si  Si1516  1  0.830687  0.422713  0.416802  1
  Si  Si1517  1  0.904166  0.221896  0.484586  1
  Si  Si1518  1  0.759600  0.309109  0.407841  1
  Si  Si1519  1  0.740490  0.190863  0.468011  1
  Si  Si1520  1  0.851139  0.307767  0.364222  1
  Si  Si1521  1  0.836813  0.221744  0.453379  1
  Si  Si1522  1  0.998506  0.077408  0.350928  1
  Si  Si1523  1  0.671258  0.690134  0.459648  1
  Si  Si1524  1  0.669399  0.922710  0.459049  1
  Si  Si1525  1  0.752458  0.775411  0.505235  1
  Si  Si1526  1  0.747634  0.724563  0.370619  1
  Si  Si1527  1  0.828833  0.809843  0.416206  1
  Si  Si1528  1  0.890819  0.811696  0.385846  1
  Si  Si1529  1  0.998679  0.691937  0.352418  1
  Si  Si1530  1  0.854632  0.809092  0.517035  1
  Si  Si1531  1  0.904370  0.876968  0.333076  1
  Si  Si1532  1  0.900946  0.689904  0.536815  1
  Si  Si1533  1  0.904531  0.720586  0.332816  1
  Si  Si1534  1  0.891682  0.577109  0.386472  1
  Si  Si1535  1  0.855056  0.577014  0.515486  1
  Si  Si1536  1  0.900910  0.923030  0.537881  1
  Si  Si1537  1  0.746978  0.881163  0.370896  1
  Si  Si1538  1  0.753113  0.618810  0.504956  1
  Si  Si1539  1  0.848045  0.922515  0.362813  1
  Si  Si1540  1  0.830690  0.577263  0.416804  1
  Si  Si1541  1  0.837082  0.622511  0.453213  1
  Si  Si1542  1  0.905325  0.622434  0.484094  1
  Si  Si1543  1  0.743034  0.577161  0.467983  1
  Si  Si1544  1  0.757056  0.922814  0.407869  1
  Si  Si1545  1  0.904161  0.778085  0.484588  1
  Si  Si1546  1  0.836811  0.778232  0.453380  1
  Si  Si1547  1  0.740487  0.809107  0.468012  1
  Si  Si1548  1  0.759605  0.690870  0.407842  1
  Si  Si1549  1  0.851145  0.692218  0.364224  1
  Si  Si1550  1  0.995556  0.811370  0.377398  1
  Si  Si1551  1  0.998510  0.922573  0.350929  1
  Si  Si1552  1  0.996326  0.577237  0.378109  1
  Si  Si1553  1  0.252460  0.275408  0.746643  1
  Si  Si1554  1  0.004540  0.188612  0.739866  1
  Si  Si1555  1  0.109277  0.188287  0.731418  1
  Si  Si1556  1  0.001416  0.308045  0.764845  1
  Si  Si1557  1  0.145454  0.190890  0.600229  1
  Si  Si1558  1  0.095726  0.123015  0.784187  1
  Si  Si1559  1  0.099140  0.310078  0.580449  1
  Si  Si1560  1  0.247631  0.224562  0.612028  1
  Si  Si1561  1  0.108412  0.422871  0.730792  1
  Si  Si1562  1  0.145033  0.422964  0.601779  1
  Si  Si1563  1  0.099180  0.076953  0.579382  1
  Si  Si1564  1  0.246975  0.381162  0.612306  1
  Si  Si1565  1  0.253116  0.118808  0.746366  1
  Si  Si1566  1  0.152048  0.077465  0.754451  1
  Si  Si1567  1  0.163010  0.377463  0.664051  1
  Si  Si1568  1  0.171261  0.190135  0.701057  1
  Si  Si1569  1  0.094764  0.377548  0.633170  1
  Si  Si1570  1  0.243036  0.077160  0.709392  1
  Si  Si1571  1  0.257057  0.422809  0.649280  1
  Si  Si1572  1  0.095564  0.279396  0.784448  1
  Si  Si1573  1  0.169403  0.422711  0.700460  1
  Si  Si1574  1  0.240491  0.309106  0.709420  1
  Si  Si1575  1  0.259600  0.190861  0.649250  1
  Si  Si1576  1  0.148952  0.307764  0.753040  1
  Si  Si1577  1  0.163279  0.221742  0.663883  1
  Si  Si1578  1  0.095925  0.221897  0.632676  1
  Si  Si1579  1  0.330690  0.077258  0.658211  1
  Si  Si1580  1  0.328831  0.309832  0.657613  1
  Si  Si1581  1  0.001586  0.077408  0.766335  1
  Si  Si1582  1  0.003767  0.422745  0.739154  1
  Si  Si1583  1  0.247635  0.775407  0.612028  1
  Si  Si1584  1  0.252457  0.724564  0.746645  1
  Si  Si1585  1  0.003766  0.577236  0.739155  1
  Si  Si1586  1  0.001583  0.922573  0.766336  1
  Si  Si1587  1  0.004536  0.811368  0.739866  1
  Si  Si1588  1  0.109273  0.811692  0.731418  1
  Si  Si1589  1  0.001412  0.691935  0.764846  1
  Si  Si1590  1  0.145460  0.809092  0.600229  1
  Si  Si1591  1  0.095723  0.876967  0.784188  1
  Si  Si1592  1  0.099144  0.689905  0.580449  1
  Si  Si1593  1  0.171258  0.809839  0.701057  1
  Si  Si1594  1  0.108410  0.577107  0.730792  1
  Si  Si1595  1  0.145035  0.577014  0.601778  1
  Si  Si1596  1  0.099184  0.923029  0.579383  1
  Si  Si1597  1  0.253113  0.881164  0.746367  1
  Si  Si1598  1  0.246978  0.618807  0.612307  1
  Si  Si1599  1  0.152046  0.922512  0.754451  1
  Si  Si1600  1  0.095560  0.720585  0.784448  1
  Si  Si1601  1  0.163011  0.622509  0.664051  1
  Si  Si1602  1  0.094767  0.622433  0.633170  1
  Si  Si1603  1  0.257058  0.577158  0.649280  1
  Si  Si1604  1  0.243035  0.922811  0.709393  1
  Si  Si1605  1  0.169401  0.577262  0.700460  1
  Si  Si1606  1  0.095931  0.778084  0.632676  1
  Si  Si1607  1  0.259606  0.809104  0.649251  1
  Si  Si1608  1  0.240487  0.690867  0.709422  1
  Si  Si1609  1  0.148947  0.692215  0.753040  1
  Si  Si1610  1  0.163283  0.778230  0.663883  1
  Si  Si1611  1  0.328834  0.690131  0.657615  1
  Si  Si1612  1  0.330693  0.922709  0.658213  1
  Si  Si1613  1  0.390814  0.311680  0.627252  1
  Si  Si1614  1  0.609277  0.311683  0.731416  1
  Si  Si1615  1  0.501417  0.191929  0.764845  1
  Si  Si1616  1  0.498675  0.191928  0.593823  1
  Si  Si1617  1  0.354637  0.309083  0.758441  1
  Si  Si1618  1  0.645454  0.309084  0.600227  1
  Si  Si1619  1  0.404361  0.376958  0.574483  1
  Si  Si1620  1  0.595728  0.376959  0.784186  1
  Si  Si1621  1  0.400952  0.189898  0.778222  1
  Si  Si1622  1  0.599141  0.189897  0.580447  1
  Si  Si1623  1  0.501585  0.422564  0.766334  1
  Si  Si1624  1  0.498504  0.422563  0.592334  1
  Si  Si1625  1  0.391679  0.077099  0.627879  1
  Si  Si1626  1  0.608411  0.077100  0.730790  1
  Si  Si1627  1  0.355059  0.077009  0.756893  1
  Si  Si1628  1  0.645033  0.077008  0.601776  1
  Si  Si1629  1  0.400911  0.423019  0.779288  1
  Si  Si1630  1  0.599178  0.423019  0.579380  1
  Si  Si1631  1  0.348042  0.422505  0.604220  1
  Si  Si1632  1  0.652050  0.422506  0.754449  1
  Si  Si1633  1  0.405328  0.122423  0.725501  1
  Si  Si1634  1  0.594762  0.122424  0.633167  1
  Si  Si1635  1  0.503768  0.077226  0.739154  1
  Si  Si1636  1  0.496322  0.077226  0.619514  1
  Si  Si1637  1  0.504540  0.311361  0.739865  1
  Si  Si1638  1  0.495551  0.311359  0.618804  1
  Si  Si1639  1  0.351138  0.192203  0.605630  1
  Si  Si1640  1  0.648952  0.192206  0.753038  1
  Si  Si1641  1  0.336812  0.278225  0.694788  1
  Si  Si1642  1  0.663277  0.278227  0.663881  1
  Si  Si1643  1  0.404166  0.278074  0.725994  1
  Si  Si1644  1  0.595925  0.278075  0.632674  1
  Si  Si1645  1  0.595567  0.220577  0.784446  1
  Si  Si1646  1  0.404524  0.220576  0.574223  1
  Si  Si1647  1  0.663006  0.122506  0.664048  1
  Si  Si1648  1  0.337083  0.122504  0.694621  1
  Si  Si1649  1  0.337083  0.877463  0.694622  1
  Si  Si1650  1  0.663008  0.877465  0.664048  1
  Si  Si1651  1  0.595564  0.779384  0.784447  1
  Si  Si1652  1  0.404528  0.779383  0.574224  1
  Si  Si1653  1  0.404161  0.721888  0.725996  1
  Si  Si1654  1  0.609273  0.688281  0.731416  1
  Si  Si1655  1  0.390819  0.688278  0.627254  1
  Si  Si1656  1  0.498679  0.808030  0.593825  1
  Si  Si1657  1  0.501414  0.808034  0.764846  1
  Si  Si1658  1  0.645460  0.690878  0.600228  1
  Si  Si1659  1  0.354632  0.690881  0.758443  1
  Si  Si1660  1  0.595725  0.623003  0.784186  1
  Si  Si1661  1  0.404365  0.623002  0.574484  1
  Si  Si1662  1  0.599144  0.810064  0.580448  1
  Si  Si1663  1  0.400948  0.810067  0.778223  1
  Si  Si1664  1  0.498508  0.577398  0.592335  1
  Si  Si1665  1  0.501583  0.577399  0.766335  1
  Si  Si1666  1  0.608409  0.922864  0.730790  1
  Si  Si1667  1  0.391683  0.922863  0.627880  1
  Si  Si1668  1  0.645035  0.922958  0.601776  1
  Si  Si1669  1  0.355057  0.922958  0.756894  1
  Si  Si1670  1  0.599181  0.576943  0.579381  1
  Si  Si1671  1  0.400909  0.576942  0.779289  1
  Si  Si1672  1  0.652047  0.577459  0.754449  1
  Si  Si1673  1  0.348044  0.577457  0.604222  1
  Si  Si1674  1  0.594766  0.877539  0.633167  1
  Si  Si1675  1  0.405326  0.877539  0.725503  1
  Si  Si1676  1  0.496324  0.922735  0.619514  1
  Si  Si1677  1  0.503767  0.922735  0.739155  1
  Si  Si1678  1  0.495556  0.688600  0.618805  1
  Si  Si1679  1  0.504536  0.688602  0.739865  1
  Si  Si1680  1  0.648948  0.807758  0.753038  1
  Si  Si1681  1  0.351145  0.807755  0.605632  1
  Si  Si1682  1  0.663281  0.721744  0.663882  1
  Si  Si1683  1  0.336809  0.721742  0.694789  1
  Si  Si1684  1  0.595931  0.721888  0.632674  1
  Si  Si1685  1  0.747631  0.275412  0.612026  1
  Si  Si1686  1  0.752460  0.224560  0.746642  1
  Si  Si1687  1  0.669401  0.077260  0.700457  1
  Si  Si1688  1  0.671261  0.309836  0.701055  1
  Si  Si1689  1  0.995551  0.188615  0.618805  1
  Si  Si1690  1  0.996324  0.422746  0.619518  1
  Si  Si1691  1  0.890813  0.188290  0.627253  1
  Si  Si1692  1  0.998675  0.308049  0.593826  1
  Si  Si1693  1  0.854637  0.190888  0.758441  1
  Si  Si1694  1  0.904367  0.123016  0.574484  1
  Si  Si1695  1  0.900950  0.310074  0.778222  1
  Si  Si1696  1  0.828829  0.190138  0.657613  1
  Si  Si1697  1  0.891679  0.422873  0.627879  1
  Si  Si1698  1  0.855058  0.422963  0.756892  1
  Si  Si1699  1  0.900912  0.076953  0.779289  1
  Si  Si1700  1  0.753116  0.381161  0.746364  1
  Si  Si1701  1  0.746975  0.118812  0.612304  1
  Si  Si1702  1  0.848042  0.077467  0.604220  1
  Si  Si1703  1  0.837083  0.377465  0.694620  1
  Si  Si1704  1  0.904528  0.279397  0.574223  1
  Si  Si1705  1  0.905328  0.377547  0.725501  1
  Si  Si1706  1  0.757055  0.077163  0.649277  1
  Si  Si1707  1  0.743035  0.422811  0.709391  1
  Si  Si1708  1  0.830687  0.422713  0.658211  1
  Si  Si1709  1  0.904166  0.221896  0.725995  1
  Si  Si1710  1  0.759600  0.309109  0.649249  1
  Si  Si1711  1  0.740490  0.190863  0.709419  1
  Si  Si1712  1  0.851139  0.307767  0.605630  1
  Si  Si1713  1  0.836813  0.221744  0.694787  1
  Si  Si1714  1  0.998506  0.077408  0.592336  1
  Si  Si1715  1  0.671258  0.690134  0.701056  1
  Si  Si1716  1  0.669399  0.922710  0.700457  1
  Si  Si1717  1  0.752458  0.775411  0.746643  1
  Si  Si1718  1  0.747634  0.724563  0.612027  1
  Si  Si1719  1  0.828833  0.809843  0.657615  1
  Si  Si1720  1  0.890819  0.811696  0.627254  1
  Si  Si1721  1  0.998679  0.691937  0.593827  1
  Si  Si1722  1  0.854632  0.809092  0.758443  1
  Si  Si1723  1  0.904370  0.876968  0.574485  1
  Si  Si1724  1  0.900946  0.689904  0.778223  1
  Si  Si1725  1  0.904531  0.720586  0.574224  1
  Si  Si1726  1  0.891682  0.577109  0.627880  1
  Si  Si1727  1  0.855056  0.577014  0.756894  1
  Si  Si1728  1  0.900910  0.923030  0.779290  1
  Si  Si1729  1  0.746978  0.881163  0.612304  1
  Si  Si1730  1  0.753113  0.618810  0.746365  1
  Si  Si1731  1  0.848045  0.922515  0.604221  1
  Si  Si1732  1  0.830690  0.577263  0.658212  1
  Si  Si1733  1  0.837082  0.622511  0.694621  1
  Si  Si1734  1  0.905325  0.622434  0.725503  1
  Si  Si1735  1  0.743034  0.577161  0.709391  1
  Si  Si1736  1  0.757056  0.922814  0.649278  1
  Si  Si1737  1  0.904161  0.778085  0.725996  1
  Si  Si1738  1  0.836811  0.778232  0.694789  1
  Si  Si1739  1  0.740487  0.809107  0.709420  1
  Si  Si1740  1  0.759605  0.690870  0.649250  1
  Si  Si1741  1  0.851145  0.692218  0.605632  1
  Si  Si1742  1  0.995556  0.811370  0.618807  1
  Si  Si1743  1  0.998510  0.922573  0.592337  1
  Si  Si1744  1  0.996326  0.577237  0.619518  1
  H  H1745  1  0.394429  0.404978  0.062556  1
  H  H1746  1  0.395299  0.193842  0.062073  1
  H  H1747  1  0.394432  0.594978  0.062558  1
  H  H1748  1  0.395301  0.806122  0.062075  1
  H  H1749  1  0.894432  0.094995  0.062557  1
  H  H1750  1  0.895300  0.306131  0.062074  1
  H  H1751  1  0.894434  0.904992  0.062558  1
  H  H1752  1  0.895301  0.693848  0.062075  1
  H  H1753  1  0.105660  0.094992  0.066761  1
  H  H1754  1  0.104790  0.306134  0.067244  1
  H  H1755  1  0.105660  0.904990  0.066761  1
  H  H1756  1  0.104789  0.693848  0.067244  1
  H  H1757  1  0.605660  0.404981  0.066759  1
  H  H1758  1  0.604792  0.193842  0.067242  1
  H  H1759  1  0.605659  0.594982  0.066760  1
  H  H1760  1  0.604791  0.806119  0.067243  1
  H  H1761  1  0.394429  0.404978  0.809092  1
  H  H1762  1  0.395299  0.193842  0.808610  1
  H  H1763  1  0.394432  0.594978  0.809094  1
  H  H1764  1  0.395301  0.806122  0.808611  1
  H  H1765  1  0.894432  0.094995  0.809093  1
  H  H1766  1  0.895300  0.306131  0.808610  1
  H  H1767  1  0.894434  0.904992  0.809094  1
  H  H1768  1  0.895301  0.693848  0.808611  1
  H  H1769  1  0.105660  0.094992  0.813298  1
  H  H1770  1  0.104790  0.306134  0.813780  1
  H  H1771  1  0.105660  0.904990  0.813298  1
  H  H1772  1  0.104789  0.693848  0.813781  1
  H  H1773  1  0.605660  0.404981  0.813296  1
  H  H1774  1  0.604792  0.193842  0.813779  1
  H  H1775  1  0.605659  0.594982  0.813296  1
  H  H1776  1  0.604791  0.806119  0.813779  1
