# generated using pymatgen
data_Si48H2O97
_symmetry_space_group_name_H-M   'P 1'
_cell_length_a   30.67096610
_cell_length_b   30.68027557
_cell_length_c   83.15213963
_cell_angle_alpha   90.00000000
_cell_angle_beta   90.00000000
_cell_angle_gamma   90.00000000
_symmetry_Int_Tables_number   1
_chemical_formula_structural   Si48H2O97
_chemical_formula_sum   'Si768 H32 O1552'
_cell_volume   78245.6388596
_cell_formula_units_Z   16
loop_
 _symmetry_equiv_pos_site_id
 _symmetry_equiv_pos_as_xyz
  1  'x, y, z'
loop_
 _atom_site_type_symbol
 _atom_site_label
 _atom_site_symmetry_multiplicity
 _atom_site_fract_x
 _atom_site_fract_y
 _atom_site_fract_z
 _atom_site_occupancy
  O  O1  1  0.113060  0.199572  0.070957  1
  O  O2  1  0.199605  0.113068  0.070960  1
  O  O3  1  0.300476  0.387005  0.070957  1
  O  O4  1  0.886957  0.199526  0.070955  1
  O  O5  1  0.699514  0.613051  0.070954  1
  O  O6  1  0.612958  0.699560  0.070960  1
  O  O7  1  0.886970  0.800439  0.070960  1
  O  O8  1  0.150455  0.230778  0.096743  1
  O  O9  1  0.069893  0.150410  0.156077  1
  O  O10  1  0.230790  0.069888  0.126442  1
  O  O11  1  0.150414  0.269273  0.281208  1
  O  O12  1  0.150411  0.230783  0.414072  1
  O  O13  1  0.069892  0.150427  0.354744  1
  O  O14  1  0.230791  0.069907  0.384384  1
  O  O15  1  0.150410  0.269229  0.229630  1
  O  O16  1  0.069903  0.230759  0.126433  1
  O  O17  1  0.230819  0.150444  0.096747  1
  O  O18  1  0.150414  0.069895  0.156074  1
  O  O19  1  0.069871  0.269247  0.310897  1
  O  O20  1  0.430115  0.230798  0.310896  1
  O  O21  1  0.269203  0.150427  0.281198  1
  O  O22  1  0.349586  0.069951  0.340541  1
  O  O23  1  0.430124  0.269287  0.126464  1
  O  O24  1  0.349600  0.269269  0.414081  1
  O  O25  1  0.349591  0.230767  0.229641  1
  O  O26  1  0.430089  0.150454  0.170300  1
  O  O27  1  0.269202  0.069908  0.199924  1
  O  O28  1  0.349638  0.269272  0.096754  1
  O  O29  1  0.349575  0.230743  0.281205  1
  O  O30  1  0.430110  0.150449  0.340545  1
  O  O31  1  0.269217  0.069894  0.310908  1
  O  O32  1  0.430135  0.269266  0.384382  1
  O  O33  1  0.430153  0.230798  0.199945  1
  O  O34  1  0.269243  0.150437  0.229625  1
  O  O35  1  0.349589  0.069943  0.170290  1
  O  O36  1  0.069896  0.269234  0.199923  1
  O  O37  1  0.069845  0.230802  0.384383  1
  O  O38  1  0.230775  0.150470  0.414077  1
  O  O39  1  0.150397  0.069915  0.354757  1
  O  O40  1  0.211991  0.119617  0.149151  1
  O  O41  1  0.212026  0.212004  0.115093  1
  O  O42  1  0.119616  0.211978  0.149151  1
  O  O43  1  0.211991  0.288055  0.299549  1
  O  O44  1  0.119567  0.288045  0.333616  1
  O  O45  1  0.211976  0.119636  0.361674  1
  O  O46  1  0.211971  0.212020  0.395722  1
  O  O47  1  0.119579  0.212023  0.361668  1
  O  O48  1  0.211974  0.288026  0.211282  1
  O  O49  1  0.119619  0.288004  0.177206  1
  O  O50  1  0.287990  0.119653  0.333613  1
  O  O51  1  0.380399  0.212026  0.333615  1
  O  O52  1  0.287998  0.211966  0.299553  1
  O  O53  1  0.380415  0.288083  0.149183  1
  O  O54  1  0.288049  0.288054  0.115085  1
  O  O55  1  0.288022  0.288058  0.395731  1
  O  O56  1  0.380418  0.288063  0.361664  1
  O  O57  1  0.287997  0.119642  0.177213  1
  O  O58  1  0.288047  0.212003  0.211281  1
  O  O59  1  0.380398  0.212044  0.177235  1
  O  O60  1  0.208580  0.208582  0.219565  1
  O  O61  1  0.402831  0.208624  0.147922  1
  O  O62  1  0.208539  0.097166  0.332366  1
  O  O63  1  0.208552  0.291465  0.404009  1
  O  O64  1  0.402860  0.291474  0.332350  1
  O  O65  1  0.208545  0.208592  0.291269  1
  O  O66  1  0.402845  0.208604  0.362926  1
  O  O67  1  0.208547  0.097179  0.178465  1
  O  O68  1  0.208592  0.291455  0.106804  1
  O  O69  1  0.402892  0.291491  0.178493  1
  O  O70  1  0.097153  0.208579  0.332356  1
  O  O71  1  0.291437  0.208615  0.404012  1
  O  O72  1  0.291455  0.097190  0.147903  1
  O  O73  1  0.097157  0.291420  0.147894  1
  O  O74  1  0.291432  0.291445  0.219575  1
  O  O75  1  0.291441  0.097206  0.362924  1
  O  O76  1  0.291434  0.291420  0.291257  1
  O  O77  1  0.097110  0.291477  0.362924  1
  O  O78  1  0.291491  0.208593  0.106817  1
  O  O79  1  0.097166  0.208556  0.178466  1
  O  O80  1  0.148390  0.258295  0.125692  1
  O  O81  1  0.148370  0.148372  0.166229  1
  O  O82  1  0.258324  0.148376  0.125695  1
  O  O83  1  0.148367  0.241757  0.310160  1
  O  O84  1  0.148328  0.258334  0.385126  1
  O  O85  1  0.148366  0.148399  0.344596  1
  O  O86  1  0.258298  0.148402  0.385130  1
  O  O87  1  0.148369  0.241705  0.200675  1
  O  O88  1  0.351622  0.258298  0.310152  1
  O  O89  1  0.241654  0.148355  0.310148  1
  O  O90  1  0.351615  0.148431  0.350691  1
  O  O91  1  0.351645  0.241785  0.125714  1
  O  O92  1  0.351643  0.241766  0.385127  1
  O  O93  1  0.351681  0.258352  0.200700  1
  O  O94  1  0.351609  0.148440  0.160148  1
  O  O95  1  0.241704  0.148394  0.200674  1
  O  O96  1  0.150092  0.055577  0.126309  1
  O  O97  1  0.150130  0.150099  0.091458  1
  O  O98  1  0.055582  0.150075  0.126308  1
  O  O99  1  0.150098  0.055588  0.384522  1
  O  O100  1  0.150091  0.150093  0.419361  1
  O  O101  1  0.055551  0.150115  0.384511  1
  O  O102  1  0.349919  0.055618  0.310778  1
  O  O103  1  0.444444  0.150114  0.310780  1
  O  O104  1  0.349904  0.150071  0.275917  1
  O  O105  1  0.349888  0.055594  0.200055  1
  O  O106  1  0.349928  0.150075  0.234916  1
  O  O107  1  0.444439  0.150105  0.200064  1
  O  O108  1  0.079168  0.188698  0.100140  1
  O  O109  1  0.079135  0.079132  0.140554  1
  O  O110  1  0.188747  0.079149  0.100145  1
  O  O111  1  0.079128  0.311331  0.284604  1
  O  O112  1  0.079124  0.188723  0.410677  1
  O  O113  1  0.079138  0.079166  0.370282  1
  O  O114  1  0.188754  0.079150  0.410683  1
  O  O115  1  0.079133  0.311296  0.226222  1
  O  O116  1  0.420868  0.188694  0.284609  1
  O  O117  1  0.311267  0.079150  0.284606  1
  O  O118  1  0.420869  0.079176  0.325024  1
  O  O119  1  0.420904  0.311345  0.100160  1
  O  O120  1  0.420893  0.311325  0.410679  1
  O  O121  1  0.420884  0.188711  0.226235  1
  O  O122  1  0.420849  0.079170  0.185819  1
  O  O123  1  0.311269  0.079142  0.226223  1
  O  O124  1  0.000000  0.113032  0.144559  1
  O  O125  1  0.113060  0.199572  0.439860  1
  O  O126  1  0.113026  0.300452  0.255418  1
  O  O127  1  0.199579  -0.000000  0.398182  1
  O  O128  1  0.199553  0.000000  0.112642  1
  O  O129  1  0.113022  -0.000000  0.144560  1
  O  O130  1  0.113001  -0.000000  0.366277  1
  O  O131  1  0.199605  0.113068  0.439863  1
  O  O132  1  0.300426  0.113036  0.255413  1
  O  O133  1  0.387009  0.300478  0.070965  1
  O  O134  1  0.386976  0.199539  0.255421  1
  O  O135  1  0.386980  -0.000000  0.329031  1
  O  O136  1  0.300479  -0.000000  0.297106  1
  O  O137  1  0.300409  -0.000000  0.213726  1
  O  O138  1  0.386957  -0.000000  0.181810  1
  O  O139  1  0.000000  0.113031  0.366256  1
  O  O140  1  0.000000  0.300476  0.213719  1
  O  O141  1  0.499985  0.113047  0.181808  1
  O  O142  1  0.000000  0.199546  0.112631  1
  O  O143  1  0.069808  0.650386  0.340557  1
  O  O144  1  0.230718  0.569923  0.310922  1
  O  O145  1  0.069852  0.349628  0.340537  1
  O  O146  1  0.230783  0.430127  0.310899  1
  O  O147  1  0.069897  0.650429  0.170301  1
  O  O148  1  0.230734  0.569862  0.199933  1
  O  O149  1  0.069882  0.349565  0.170277  1
  O  O150  1  0.230733  0.430087  0.199919  1
  O  O151  1  0.230765  0.650423  0.281207  1
  O  O152  1  0.150360  0.569876  0.340555  1
  O  O153  1  0.230780  0.349596  0.281190  1
  O  O154  1  0.150411  0.430094  0.340527  1
  O  O155  1  0.269244  0.650434  0.096762  1
  O  O156  1  0.349599  0.569911  0.156101  1
  O  O157  1  0.269268  0.349616  0.096738  1
  O  O158  1  0.349603  0.430148  0.156094  1
  O  O159  1  0.430150  0.349620  0.354740  1
  O  O160  1  0.269236  0.430121  0.384367  1
  O  O161  1  0.430041  0.650437  0.354747  1
  O  O162  1  0.269190  0.569885  0.384395  1
  O  O163  1  0.430155  0.349642  0.156104  1
  O  O164  1  0.269275  0.430114  0.126451  1
  O  O165  1  0.430093  0.650434  0.156104  1
  O  O166  1  0.269236  0.569893  0.126460  1
  O  O167  1  0.269234  0.349604  0.414077  1
  O  O168  1  0.349616  0.430125  0.354738  1
  O  O169  1  0.269211  0.650404  0.414098  1
  O  O170  1  0.349535  0.569906  0.354747  1
  O  O171  1  0.230755  0.349596  0.229625  1
  O  O172  1  0.150413  0.430092  0.170267  1
  O  O173  1  0.230759  0.650337  0.229649  1
  O  O174  1  0.150391  0.569890  0.170288  1
  O  O175  1  0.211907  0.619645  0.333634  1
  O  O176  1  0.211997  0.380373  0.333603  1
  O  O177  1  0.211972  0.619608  0.177227  1
  O  O178  1  0.211977  0.380357  0.177203  1
  O  O179  1  0.288015  0.619618  0.149177  1
  O  O180  1  0.288062  0.380387  0.149164  1
  O  O181  1  0.288034  0.380395  0.361657  1
  O  O182  1  0.287961  0.619623  0.361684  1
  O  O183  1  0.208588  0.402818  0.147895  1
  O  O184  1  0.208561  0.597162  0.147914  1
  O  O185  1  0.208567  0.402837  0.362909  1
  O  O186  1  0.208504  0.597154  0.362943  1
  O  O187  1  0.291461  0.402860  0.332351  1
  O  O188  1  0.291371  0.597200  0.332373  1
  O  O189  1  0.291429  0.597150  0.178485  1
  O  O190  1  0.291429  0.402855  0.178472  1
  O  O191  1  0.148279  0.648338  0.350722  1
  O  O192  1  0.258239  0.648406  0.310167  1
  O  O193  1  0.148353  0.351638  0.350687  1
  O  O194  1  0.258338  0.351662  0.310138  1
  O  O195  1  0.148370  0.648372  0.160142  1
  O  O196  1  0.258294  0.648326  0.200700  1
  O  O197  1  0.148367  0.351611  0.160118  1
  O  O198  1  0.258290  0.351623  0.200674  1
  O  O199  1  0.241715  0.648374  0.125712  1
  O  O200  1  0.351615  0.648385  0.166262  1
  O  O201  1  0.241752  0.351645  0.125691  1
  O  O202  1  0.351680  0.351689  0.166265  1
  O  O203  1  0.351669  0.351664  0.344579  1
  O  O204  1  0.241708  0.351652  0.385121  1
  O  O205  1  0.351562  0.648403  0.344599  1
  O  O206  1  0.241663  0.648358  0.385149  1
  O  O207  1  0.150035  0.555575  0.310787  1
  O  O208  1  0.150081  0.650068  0.275930  1
  O  O209  1  0.055516  0.650040  0.310791  1
  O  O210  1  0.150083  0.444432  0.310765  1
  O  O211  1  0.150085  0.349953  0.275914  1
  O  O212  1  0.055539  0.349934  0.310770  1
  O  O213  1  0.150037  0.555543  0.200051  1
  O  O214  1  0.150064  0.650030  0.234930  1
  O  O215  1  0.055580  0.650075  0.200066  1
  O  O216  1  0.150048  0.444408  0.200033  1
  O  O217  1  0.150068  0.349909  0.234917  1
  O  O218  1  0.055584  0.349922  0.200045  1
  O  O219  1  0.349925  0.555594  0.126333  1
  O  O220  1  0.444431  0.650132  0.126338  1
  O  O221  1  0.349931  0.650093  0.091478  1
  O  O222  1  0.349959  0.444454  0.126326  1
  O  O223  1  0.444456  0.349966  0.126334  1
  O  O224  1  0.349960  0.349957  0.091459  1
  O  O225  1  0.349932  0.444437  0.384503  1
  O  O226  1  0.349937  0.349940  0.419364  1
  O  O227  1  0.444467  0.349945  0.384510  1
  O  O228  1  0.349881  0.555572  0.384512  1
  O  O229  1  0.349905  0.650078  0.419381  1
  O  O230  1  0.444372  0.650090  0.384512  1
  O  O231  1  0.079068  0.579102  0.325039  1
  O  O232  1  0.188692  0.579139  0.284621  1
  O  O233  1  0.079119  0.420875  0.325006  1
  O  O234  1  0.188738  0.420894  0.284598  1
  O  O235  1  0.079104  0.579122  0.185806  1
  O  O236  1  0.188657  0.579080  0.226230  1
  O  O237  1  0.079123  0.420857  0.185784  1
  O  O238  1  0.188650  0.420848  0.226212  1
  O  O239  1  0.311301  0.579148  0.100164  1
  O  O240  1  0.420869  0.579172  0.140575  1
  O  O241  1  0.311335  0.420894  0.100150  1
  O  O242  1  0.420898  0.420911  0.140580  1
  O  O243  1  0.420900  0.420891  0.370263  1
  O  O244  1  0.311301  0.420869  0.410667  1
  O  O245  1  0.420809  0.579152  0.370265  1
  O  O246  1  0.311281  0.579126  0.410688  1
  O  O247  1  0.199553  0.500022  0.297115  1
  O  O248  1  0.000000  0.386996  0.181795  1
  O  O249  1  0.199505  0.499969  0.213716  1
  O  O250  1  0.112999  0.499984  0.329023  1
  O  O251  1  0.199531  0.612970  0.255428  1
  O  O252  1  0.199549  0.386993  0.255408  1
  O  O253  1  0.387003  0.500034  0.144578  1
  O  O254  1  0.300446  0.613029  0.070977  1
  O  O255  1  0.300476  0.387005  0.439860  1
  O  O256  1  0.300435  0.499995  0.398179  1
  O  O257  1  0.300470  0.500012  0.112658  1
  O  O258  1  0.386973  0.500016  0.366259  1
  O  O259  1  0.112997  0.499988  0.181786  1
  O  O260  1  0.499930  0.613018  0.366255  1
  O  O261  1  0.499995  0.613070  0.144587  1
  O  O262  1  0.150382  0.730761  0.281214  1
  O  O263  1  0.150416  0.769230  0.096756  1
  O  O264  1  0.069898  0.849592  0.156108  1
  O  O265  1  0.230767  0.930127  0.126448  1
  O  O266  1  0.150434  0.730722  0.229655  1
  O  O267  1  0.150378  0.769237  0.414084  1
  O  O268  1  0.069898  0.849604  0.354740  1
  O  O269  1  0.230757  0.930105  0.384384  1
  O  O270  1  0.069861  0.730732  0.310913  1
  O  O271  1  0.069895  0.769247  0.126462  1
  O  O272  1  0.230768  0.849581  0.096751  1
  O  O273  1  0.150419  0.930129  0.156090  1
  O  O274  1  0.430109  0.730815  0.126472  1
  O  O275  1  0.430077  0.769286  0.310915  1
  O  O276  1  0.269176  0.849621  0.281210  1
  O  O277  1  0.349582  0.930164  0.340550  1
  O  O278  1  0.349577  0.769227  0.229659  1
  O  O279  1  0.430060  0.849606  0.170316  1
  O  O280  1  0.269202  0.930104  0.199942  1
  O  O281  1  0.349551  0.730765  0.414101  1
  O  O282  1  0.349543  0.769285  0.281218  1
  O  O283  1  0.430095  0.849625  0.340564  1
  O  O284  1  0.269247  0.930168  0.310905  1
  O  O285  1  0.349586  0.730780  0.096764  1
  O  O286  1  0.430111  0.769255  0.199949  1
  O  O287  1  0.269237  0.849576  0.229630  1
  O  O288  1  0.349570  0.930137  0.170297  1
  O  O289  1  0.430062  0.730780  0.384390  1
  O  O290  1  0.069872  0.769258  0.384378  1
  O  O291  1  0.230729  0.849583  0.414076  1
  O  O292  1  0.150389  0.930150  0.354745  1
  O  O293  1  0.069936  0.730764  0.199944  1
  O  O294  1  0.211960  0.712000  0.299551  1
  O  O295  1  0.119562  0.711945  0.333628  1
  O  O296  1  0.211985  0.880406  0.149167  1
  O  O297  1  0.211973  0.788032  0.115105  1
  O  O298  1  0.119620  0.788023  0.149180  1
  O  O299  1  0.212002  0.711927  0.211313  1
  O  O300  1  0.119650  0.711985  0.177230  1
  O  O301  1  0.211951  0.880407  0.361663  1
  O  O302  1  0.211941  0.788006  0.395735  1
  O  O303  1  0.119622  0.788036  0.361665  1
  O  O304  1  0.380369  0.712007  0.149182  1
  O  O305  1  0.288027  0.711993  0.115113  1
  O  O306  1  0.288008  0.880443  0.333617  1
  O  O307  1  0.380365  0.788060  0.333632  1
  O  O308  1  0.287966  0.788068  0.299562  1
  O  O309  1  0.287995  0.880410  0.177225  1
  O  O310  1  0.288039  0.787971  0.211298  1
  O  O311  1  0.380343  0.788015  0.177249  1
  O  O312  1  0.287986  0.711968  0.395753  1
  O  O313  1  0.380326  0.712016  0.361677  1
  O  O314  1  0.208551  0.902918  0.332360  1
  O  O315  1  0.208528  0.708559  0.404032  1
  O  O316  1  0.402787  0.708598  0.332368  1
  O  O317  1  0.208599  0.791395  0.219586  1
  O  O318  1  0.402810  0.791458  0.147936  1
  O  O319  1  0.208548  0.902840  0.178484  1
  O  O320  1  0.208570  0.708574  0.106826  1
  O  O321  1  0.402839  0.708570  0.178492  1
  O  O322  1  0.208511  0.791468  0.291281  1
  O  O323  1  0.402788  0.791473  0.362945  1
  O  O324  1  0.291433  0.902858  0.147910  1
  O  O325  1  0.097164  0.708578  0.147920  1
  O  O326  1  0.291444  0.708512  0.219600  1
  O  O327  1  0.097144  0.791427  0.332362  1
  O  O328  1  0.291388  0.791430  0.404028  1
  O  O329  1  0.291432  0.791442  0.106823  1
  O  O330  1  0.097213  0.791446  0.178497  1
  O  O331  1  0.291414  0.902862  0.362929  1
  O  O332  1  0.291411  0.708603  0.291279  1
  O  O333  1  0.097100  0.708578  0.362932  1
  O  O334  1  0.148342  0.758259  0.310167  1
  O  O335  1  0.148369  0.741718  0.125713  1
  O  O336  1  0.148379  0.851644  0.166251  1
  O  O337  1  0.258288  0.851651  0.125704  1
  O  O338  1  0.148416  0.758257  0.200702  1
  O  O339  1  0.148335  0.741698  0.385133  1
  O  O340  1  0.148352  0.851671  0.344573  1
  O  O341  1  0.258253  0.851614  0.385123  1
  O  O342  1  0.351632  0.758325  0.125717  1
  O  O343  1  0.351590  0.741769  0.310169  1
  O  O344  1  0.241668  0.851698  0.310158  1
  O  O345  1  0.351609  0.851677  0.350704  1
  O  O346  1  0.351661  0.741647  0.200717  1
  O  O347  1  0.351591  0.851636  0.160159  1
  O  O348  1  0.241718  0.851592  0.200682  1
  O  O349  1  0.351588  0.758298  0.385149  1
  O  O350  1  0.150082  0.944430  0.126319  1
  O  O351  1  0.150086  0.849912  0.091462  1
  O  O352  1  0.055596  0.849928  0.126338  1
  O  O353  1  0.150078  0.944452  0.384513  1
  O  O354  1  0.150047  0.849926  0.419369  1
  O  O355  1  0.055559  0.849934  0.384508  1
  O  O356  1  0.349949  0.944459  0.310781  1
  O  O357  1  0.444405  0.849976  0.310798  1
  O  O358  1  0.349862  0.849958  0.275921  1
  O  O359  1  0.349891  0.944463  0.200060  1
  O  O360  1  0.349906  0.849933  0.234927  1
  O  O361  1  0.444407  0.849962  0.200075  1
  O  O362  1  0.079120  0.688649  0.284622  1
  O  O363  1  0.079152  0.811312  0.100163  1
  O  O364  1  0.079146  0.920869  0.140577  1
  O  O365  1  0.188704  0.920864  0.100150  1
  O  O366  1  0.079139  0.688684  0.226239  1
  O  O367  1  0.079099  0.811303  0.410680  1
  O  O368  1  0.079130  0.920883  0.370269  1
  O  O369  1  0.188691  0.920876  0.410681  1
  O  O370  1  0.420871  0.688746  0.100170  1
  O  O371  1  0.420810  0.811380  0.284626  1
  O  O372  1  0.311282  0.920898  0.284608  1
  O  O373  1  0.420883  0.920924  0.325048  1
  O  O374  1  0.420854  0.811315  0.226244  1
  O  O375  1  0.420842  0.920907  0.185822  1
  O  O376  1  0.311282  0.920881  0.226231  1
  O  O377  1  0.420838  0.688713  0.410688  1
  O  O378  1  0.113009  0.699511  0.255432  1
  O  O379  1  0.113010  0.800442  0.070968  1
  O  O380  1  0.499997  0.699612  0.112667  1
  O  O381  1  0.499949  0.800508  0.297107  1
  O  O382  1  0.199554  0.886963  0.070962  1
  O  O383  1  0.300393  0.886989  0.255418  1
  O  O384  1  0.499997  0.886997  0.329044  1
  O  O385  1  0.386957  0.800483  0.255434  1
  O  O386  1  0.386970  0.699561  0.070978  1
  O  O387  1  0.499956  0.699548  0.398175  1
  O  O388  1  0.000000  0.699583  0.213727  1
  O  O389  1  -0.000000  0.887009  0.144578  1
  O  O390  1  0.499966  0.887016  0.181809  1
  O  O391  1  0.000000  0.886992  0.366254  1
  O  O392  1  0.000000  0.800490  0.112654  1
  O  O393  1  0.499989  0.800496  0.213736  1
  O  O394  1  0.650446  0.230737  0.281213  1
  O  O395  1  0.569910  0.150403  0.340551  1
  O  O396  1  0.730788  0.069862  0.310906  1
  O  O397  1  0.650451  0.269276  0.096762  1
  O  O398  1  0.650430  0.230778  0.229637  1
  O  O399  1  0.569878  0.150440  0.170289  1
  O  O400  1  0.730768  0.069916  0.199931  1
  O  O401  1  0.650440  0.269239  0.414093  1
  O  O402  1  0.569912  0.230768  0.310909  1
  O  O403  1  0.730796  0.150399  0.281203  1
  O  O404  1  0.650412  0.069883  0.340537  1
  O  O405  1  0.569919  0.269284  0.126461  1
  O  O406  1  0.930157  0.230800  0.126438  1
  O  O407  1  0.769246  0.150444  0.096764  1
  O  O408  1  0.849620  0.069933  0.156103  1
  O  O409  1  0.930103  0.269254  0.310901  1
  O  O410  1  0.849604  0.269289  0.229623  1
  O  O411  1  0.849552  0.230709  0.414072  1
  O  O412  1  0.930107  0.150410  0.354733  1
  O  O413  1  0.769243  0.069825  0.384386  1
  O  O414  1  0.849593  0.269249  0.281187  1
  O  O415  1  0.849596  0.230789  0.096737  1
  O  O416  1  0.930135  0.150459  0.156081  1
  O  O417  1  0.769242  0.069933  0.126467  1
  O  O418  1  0.930119  0.269285  0.199922  1
  O  O419  1  0.930086  0.230768  0.384380  1
  O  O420  1  0.769198  0.150375  0.414087  1
  O  O421  1  0.849613  0.069880  0.354754  1
  O  O422  1  0.569916  0.269227  0.384388  1
  O  O423  1  0.569906  0.230781  0.199936  1
  O  O424  1  0.730792  0.150431  0.229640  1
  O  O425  1  0.650419  0.069929  0.170293  1
  O  O426  1  0.712014  0.119591  0.333616  1
  O  O427  1  0.712025  0.211943  0.299557  1
  O  O428  1  0.619638  0.211962  0.333625  1
  O  O429  1  0.712020  0.288069  0.115109  1
  O  O430  1  0.619645  0.288067  0.149177  1
  O  O431  1  0.711994  0.119660  0.177226  1
  O  O432  1  0.712003  0.211995  0.211294  1
  O  O433  1  0.619612  0.212007  0.177219  1
  O  O434  1  0.711995  0.288027  0.395742  1
  O  O435  1  0.619648  0.288007  0.361672  1
  O  O436  1  0.788050  0.119657  0.149181  1
  O  O437  1  0.880418  0.212031  0.149153  1
  O  O438  1  0.788068  0.212034  0.115099  1
  O  O439  1  0.880368  0.288032  0.333614  1
  O  O440  1  0.788038  0.288013  0.299539  1
  O  O441  1  0.788027  0.288052  0.211279  1
  O  O442  1  0.880387  0.288068  0.177207  1
  O  O443  1  0.788021  0.119576  0.361679  1
  O  O444  1  0.787990  0.211924  0.395728  1
  O  O445  1  0.880383  0.211985  0.361661  1
  O  O446  1  0.708559  0.208546  0.404022  1
  O  O447  1  0.902821  0.208566  0.332352  1
  O  O448  1  0.708582  0.097218  0.147917  1
  O  O449  1  0.708574  0.291455  0.219568  1
  O  O450  1  0.902866  0.291488  0.147896  1
  O  O451  1  0.708605  0.208613  0.106828  1
  O  O452  1  0.902868  0.208623  0.178464  1
  O  O453  1  0.708574  0.097097  0.362923  1
  O  O454  1  0.708584  0.291408  0.291273  1
  O  O455  1  0.902824  0.291447  0.362923  1
  O  O456  1  0.597175  0.208606  0.147910  1
  O  O457  1  0.791463  0.208602  0.219572  1
  O  O458  1  0.791463  0.097122  0.332367  1
  O  O459  1  0.597205  0.291429  0.332363  1
  O  O460  1  0.791431  0.291397  0.404019  1
  O  O461  1  0.791467  0.097206  0.178487  1
  O  O462  1  0.791469  0.291493  0.106816  1
  O  O463  1  0.597184  0.291474  0.178485  1
  O  O464  1  0.791465  0.208550  0.291257  1
  O  O465  1  0.597197  0.208545  0.362935  1
  O  O466  1  0.648409  0.258252  0.310164  1
  O  O467  1  0.648401  0.148347  0.350701  1
  O  O468  1  0.758355  0.148325  0.310151  1
  O  O469  1  0.648403  0.241760  0.125714  1
  O  O470  1  0.648389  0.258291  0.200682  1
  O  O471  1  0.648369  0.148404  0.160141  1
  O  O472  1  0.758316  0.148390  0.200692  1
  O  O473  1  0.648390  0.241713  0.385139  1
  O  O474  1  0.851694  0.258347  0.125685  1
  O  O475  1  0.741761  0.148432  0.125720  1
  O  O476  1  0.851666  0.148422  0.166249  1
  O  O477  1  0.851643  0.241717  0.310142  1
  O  O478  1  0.851645  0.241748  0.200673  1
  O  O479  1  0.851601  0.258261  0.385122  1
  O  O480  1  0.851623  0.148361  0.344592  1
  O  O481  1  0.741669  0.148293  0.385139  1
  O  O482  1  0.650080  0.055580  0.310774  1
  O  O483  1  0.650097  0.150066  0.275920  1
  O  O484  1  0.555568  0.150095  0.310783  1
  O  O485  1  0.650067  0.055599  0.200056  1
  O  O486  1  0.650101  0.150093  0.234923  1
  O  O487  1  0.555579  0.150090  0.200056  1
  O  O488  1  0.849921  0.055599  0.126336  1
  O  O489  1  0.944440  0.150108  0.126313  1
  O  O490  1  0.849919  0.150085  0.091465  1
  O  O491  1  0.849944  0.055555  0.384522  1
  O  O492  1  0.849882  0.150028  0.419370  1
  O  O493  1  0.944426  0.150084  0.384499  1
  O  O494  1  0.579150  0.188696  0.284613  1
  O  O495  1  0.579126  0.079144  0.325020  1
  O  O496  1  0.688727  0.079127  0.284607  1
  O  O497  1  0.579156  0.311331  0.100163  1
  O  O498  1  0.579159  0.188698  0.226230  1
  O  O499  1  0.579118  0.079154  0.185803  1
  O  O500  1  0.688706  0.079152  0.226226  1
  O  O501  1  0.579162  0.311298  0.410687  1
  O  O502  1  0.920872  0.188719  0.100143  1
  O  O503  1  0.811293  0.079151  0.100167  1
  O  O504  1  0.920874  0.079172  0.140567  1
  O  O505  1  0.920859  0.311320  0.284600  1
  O  O506  1  0.920880  0.311357  0.226218  1
  O  O507  1  0.920827  0.188651  0.410668  1
  O  O508  1  0.920889  0.079130  0.370265  1
  O  O509  1  0.811262  0.079084  0.410692  1
  O  O510  1  0.613046  0.199557  0.255424  1
  O  O511  1  0.613055  0.300461  0.070975  1
  O  O512  1  0.699534  -0.000000  0.297104  1
  O  O513  1  0.886999  -0.000000  0.144580  1
  O  O514  1  0.699572  0.113018  0.255418  1
  O  O515  1  0.500022  0.300487  0.112667  1
  O  O516  1  0.800408  0.113015  0.070976  1
  O  O517  1  0.886986  0.300502  0.255407  1
  O  O518  1  0.886957  0.199526  0.439858  1
  O  O519  1  0.699545  -0.000000  0.213721  1
  O  O520  1  0.613015  -0.000000  0.181802  1
  O  O521  1  0.800443  -0.000000  0.112668  1
  O  O522  1  0.500002  0.113043  0.329033  1
  O  O523  1  0.500012  0.199574  0.297106  1
  O  O524  1  0.613000  -0.000000  0.329022  1
  O  O525  1  0.000000  0.300466  0.297099  1
  O  O526  1  0.000000  0.199557  0.398184  1
  O  O527  1  0.500029  0.300457  0.398184  1
  O  O528  1  0.500028  0.199551  0.213738  1
  O  O529  1  0.569896  0.650472  0.156097  1
  O  O530  1  0.730753  0.569951  0.126440  1
  O  O531  1  0.569914  0.349634  0.156100  1
  O  O532  1  0.730766  0.430178  0.126454  1
  O  O533  1  0.569806  0.650408  0.354729  1
  O  O534  1  0.730694  0.569908  0.384369  1
  O  O535  1  0.569926  0.349577  0.354747  1
  O  O536  1  0.730785  0.430125  0.384391  1
  O  O537  1  0.730748  0.650467  0.096732  1
  O  O538  1  0.650422  0.569956  0.156085  1
  O  O539  1  0.730789  0.349634  0.096762  1
  O  O540  1  0.650412  0.430182  0.156097  1
  O  O541  1  0.769202  0.650452  0.281184  1
  O  O542  1  0.849492  0.569935  0.340531  1
  O  O543  1  0.769224  0.349588  0.281201  1
  O  O544  1  0.849582  0.430143  0.340537  1
  O  O545  1  0.930102  0.349643  0.170282  1
  O  O546  1  0.769242  0.430156  0.199933  1
  O  O547  1  0.930119  0.650469  0.170288  1
  O  O548  1  0.769257  0.569946  0.199917  1
  O  O549  1  0.930093  0.349612  0.340534  1
  O  O550  1  0.769214  0.430109  0.310900  1
  O  O551  1  0.930029  0.650430  0.340543  1
  O  O552  1  0.769140  0.569926  0.310890  1
  O  O553  1  0.769237  0.349614  0.229627  1
  O  O554  1  0.849597  0.430155  0.170294  1
  O  O555  1  0.769277  0.650447  0.229621  1
  O  O556  1  0.849607  0.569937  0.170269  1
  O  O557  1  0.730793  0.349586  0.414091  1
  O  O558  1  0.650436  0.430111  0.354748  1
  O  O559  1  0.730706  0.650432  0.414069  1
  O  O560  1  0.650334  0.569885  0.354731  1
  O  O561  1  0.711991  0.619684  0.149153  1
  O  O562  1  0.711978  0.380455  0.149169  1
  O  O563  1  0.711883  0.619629  0.361654  1
  O  O564  1  0.712015  0.380397  0.361677  1
  O  O565  1  0.787921  0.619667  0.333600  1
  O  O566  1  0.788033  0.380402  0.333619  1
  O  O567  1  0.788026  0.380429  0.177220  1
  O  O568  1  0.788047  0.619665  0.177197  1
  O  O569  1  0.708581  0.402832  0.332362  1
  O  O570  1  0.708470  0.597191  0.332340  1
  O  O571  1  0.708570  0.402903  0.178480  1
  O  O572  1  0.708590  0.597226  0.178463  1
  O  O573  1  0.791433  0.402912  0.147913  1
  O  O574  1  0.791450  0.597226  0.147885  1
  O  O575  1  0.791344  0.597204  0.362910  1
  O  O576  1  0.791457  0.402867  0.362932  1
  O  O577  1  0.648386  0.648430  0.166243  1
  O  O578  1  0.758278  0.648426  0.125683  1
  O  O579  1  0.648379  0.351695  0.166257  1
  O  O580  1  0.758312  0.351695  0.125711  1
  O  O581  1  0.648269  0.648363  0.344570  1
  O  O582  1  0.758194  0.648398  0.385115  1
  O  O583  1  0.648408  0.351626  0.344596  1
  O  O584  1  0.758324  0.351646  0.385141  1
  O  O585  1  0.741626  0.648407  0.310132  1
  O  O586  1  0.851535  0.648421  0.350684  1
  O  O587  1  0.741734  0.351613  0.310158  1
  O  O588  1  0.851640  0.351661  0.350699  1
  O  O589  1  0.851630  0.351680  0.160127  1
  O  O590  1  0.741706  0.351671  0.200680  1
  O  O591  1  0.851652  0.648424  0.160120  1
  O  O592  1  0.741761  0.648428  0.200666  1
  O  O593  1  0.650060  0.555634  0.126320  1
  O  O594  1  0.650054  0.650123  0.091457  1
  O  O595  1  0.555560  0.650135  0.126334  1
  O  O596  1  0.650080  0.444492  0.126328  1
  O  O597  1  0.650100  0.349954  0.091473  1
  O  O598  1  0.555598  0.349967  0.126332  1
  O  O599  1  0.650015  0.555570  0.384501  1
  O  O600  1  0.650020  0.650084  0.419362  1
  O  O601  1  0.555513  0.650067  0.384497  1
  O  O602  1  0.650092  0.444428  0.384514  1
  O  O603  1  0.650108  0.349926  0.419379  1
  O  O604  1  0.555604  0.349910  0.384514  1
  O  O605  1  0.849829  0.555598  0.310769  1
  O  O606  1  0.944387  0.650096  0.310782  1
  O  O607  1  0.849896  0.650095  0.275916  1
  O  O608  1  0.849886  0.444470  0.310767  1
  O  O609  1  0.944404  0.349944  0.310769  1
  O  O610  1  0.849909  0.349945  0.275912  1
  O  O611  1  0.849934  0.444480  0.200059  1
  O  O612  1  0.849924  0.349975  0.234910  1
  O  O613  1  0.944441  0.349965  0.200048  1
  O  O614  1  0.849930  0.555615  0.200039  1
  O  O615  1  0.849965  0.650112  0.234914  1
  O  O616  1  0.944435  0.650129  0.200056  1
  O  O617  1  0.579124  0.579193  0.140577  1
  O  O618  1  0.688679  0.579184  0.100146  1
  O  O619  1  0.579146  0.420921  0.140577  1
  O  O620  1  0.688705  0.420911  0.100159  1
  O  O621  1  0.579061  0.579117  0.370251  1
  O  O622  1  0.688646  0.579144  0.410669  1
  O  O623  1  0.579162  0.420851  0.370268  1
  O  O624  1  0.688722  0.420873  0.410687  1
  O  O625  1  0.811229  0.579153  0.284597  1
  O  O626  1  0.920775  0.579166  0.325016  1
  O  O627  1  0.811265  0.420889  0.284600  1
  O  O628  1  0.920836  0.420900  0.325010  1
  O  O629  1  0.920879  0.420917  0.185809  1
  O  O630  1  0.811288  0.420918  0.226230  1
  O  O631  1  0.920868  0.579185  0.185802  1
  O  O632  1  0.811341  0.579176  0.226214  1
  O  O633  1  0.699532  0.500057  0.112650  1
  O  O634  1  0.500031  0.387033  0.144580  1
  O  O635  1  0.000000  0.612995  0.329035  1
  O  O636  1  0.699524  0.500014  0.398178  1
  O  O637  1  0.613014  0.500066  0.144574  1
  O  O638  1  0.699514  0.613051  0.439857  1
  O  O639  1  0.699583  0.386991  0.070973  1
  O  O640  1  0.886922  0.500040  0.329016  1
  O  O641  1  0.800458  0.613050  0.255406  1
  O  O642  1  0.800425  0.386990  0.255414  1
  O  O643  1  0.800460  0.500053  0.213721  1
  O  O644  1  0.800371  0.500021  0.297101  1
  O  O645  1  0.886994  0.500046  0.181800  1
  O  O646  1  0.612992  0.499986  0.366260  1
  O  O647  1  0.000000  0.387024  0.329012  1
  O  O648  1  0.500037  0.386990  0.366263  1
  O  O649  1  0.000000  0.613054  0.181809  1
  O  O650  1  0.650384  0.730813  0.096737  1
  O  O651  1  0.650356  0.769278  0.281185  1
  O  O652  1  0.569899  0.849587  0.340538  1
  O  O653  1  0.730742  0.930116  0.310898  1
  O  O654  1  0.650341  0.730772  0.414080  1
  O  O655  1  0.650420  0.769259  0.229631  1
  O  O656  1  0.569876  0.849633  0.170288  1
  O  O657  1  0.730772  0.930137  0.199928  1
  O  O658  1  0.569898  0.730820  0.126454  1
  O  O659  1  0.569839  0.769258  0.310891  1
  O  O660  1  0.730719  0.849612  0.281193  1
  O  O661  1  0.650392  0.930115  0.340545  1
  O  O662  1  0.930085  0.730788  0.310900  1
  O  O663  1  0.930131  0.769287  0.126444  1
  O  O664  1  0.769253  0.849622  0.096754  1
  O  O665  1  0.849606  0.930146  0.156094  1
  O  O666  1  0.849551  0.769222  0.414076  1
  O  O667  1  0.930113  0.849605  0.354732  1
  O  O668  1  0.769237  0.930096  0.384383  1
  O  O669  1  0.849620  0.730802  0.229637  1
  O  O670  1  0.849600  0.769272  0.096749  1
  O  O671  1  0.930128  0.849636  0.156086  1
  O  O672  1  0.769244  0.930130  0.126455  1
  O  O673  1  0.849559  0.730786  0.281196  1
  O  O674  1  0.930066  0.769252  0.384373  1
  O  O675  1  0.769192  0.849582  0.414093  1
  O  O676  1  0.849571  0.930126  0.354740  1
  O  O677  1  0.930140  0.730816  0.199927  1
  O  O678  1  0.569879  0.769277  0.199929  1
  O  O679  1  0.730769  0.849615  0.229631  1
  O  O680  1  0.650411  0.930137  0.170290  1
  O  O681  1  0.569833  0.730757  0.384371  1
  O  O682  1  0.711964  0.712031  0.115077  1
  O  O683  1  0.619632  0.712040  0.149164  1
  O  O684  1  0.711966  0.880399  0.333614  1
  O  O685  1  0.711921  0.788048  0.299535  1
  O  O686  1  0.619600  0.788005  0.333600  1
  O  O687  1  0.711911  0.712008  0.395732  1
  O  O688  1  0.619547  0.711973  0.361656  1
  O  O689  1  0.711994  0.880408  0.177220  1
  O  O690  1  0.712000  0.788038  0.211289  1
  O  O691  1  0.619616  0.788068  0.177222  1
  O  O692  1  0.880329  0.712021  0.333606  1
  O  O693  1  0.787976  0.712012  0.299536  1
  O  O694  1  0.788032  0.880411  0.149167  1
  O  O695  1  0.880406  0.788068  0.149158  1
  O  O696  1  0.788024  0.788053  0.115095  1
  O  O697  1  0.787998  0.880381  0.361666  1
  O  O698  1  0.787954  0.788035  0.395741  1
  O  O699  1  0.880354  0.788061  0.361658  1
  O  O700  1  0.788064  0.712026  0.211284  1
  O  O701  1  0.880393  0.712037  0.177214  1
  O  O702  1  0.708572  0.902862  0.147910  1
  O  O703  1  0.708595  0.708589  0.219565  1
  O  O704  1  0.902867  0.708622  0.147903  1
  O  O705  1  0.708492  0.791453  0.404023  1
  O  O706  1  0.902813  0.791469  0.332347  1
  O  O707  1  0.708547  0.902842  0.362927  1
  O  O708  1  0.708526  0.708609  0.291237  1
  O  O709  1  0.902762  0.708596  0.362919  1
  O  O710  1  0.708564  0.791479  0.106802  1
  O  O711  1  0.902865  0.791484  0.178471  1
  O  O712  1  0.791415  0.902855  0.332354  1
  O  O713  1  0.597088  0.708568  0.332341  1
  O  O714  1  0.791379  0.708575  0.404004  1
  O  O715  1  0.597175  0.791488  0.147907  1
  O  O716  1  0.791458  0.791468  0.219576  1
  O  O717  1  0.791388  0.791458  0.291252  1
  O  O718  1  0.597138  0.791429  0.362913  1
  O  O719  1  0.791454  0.902863  0.178478  1
  O  O720  1  0.791434  0.708615  0.106802  1
  O  O721  1  0.597175  0.708615  0.178477  1
  O  O722  1  0.648370  0.758344  0.125691  1
  O  O723  1  0.648305  0.741700  0.310129  1
  O  O724  1  0.648374  0.851616  0.350689  1
  O  O725  1  0.758255  0.851643  0.310146  1
  O  O726  1  0.648305  0.758292  0.385126  1
  O  O727  1  0.648376  0.741744  0.200684  1
  O  O728  1  0.648373  0.851666  0.160141  1
  O  O729  1  0.758308  0.851655  0.200684  1
  O  O730  1  0.851598  0.758331  0.310141  1
  O  O731  1  0.851647  0.741747  0.125697  1
  O  O732  1  0.741711  0.851656  0.125702  1
  O  O733  1  0.851652  0.851669  0.166245  1
  O  O734  1  0.851563  0.741762  0.385118  1
  O  O735  1  0.851621  0.851669  0.344577  1
  O  O736  1  0.741666  0.851644  0.385138  1
  O  O737  1  0.851670  0.758351  0.200686  1
  O  O738  1  0.650053  0.944436  0.310777  1
  O  O739  1  0.650026  0.849963  0.275905  1
  O  O740  1  0.555541  0.849949  0.310775  1
  O  O741  1  0.650069  0.944458  0.200051  1
  O  O742  1  0.650076  0.849949  0.234906  1
  O  O743  1  0.555543  0.849968  0.200051  1
  O  O744  1  0.849935  0.944468  0.126330  1
  O  O745  1  0.944451  0.849975  0.126318  1
  O  O746  1  0.849945  0.849951  0.091463  1
  O  O747  1  0.849937  0.944398  0.384507  1
  O  O748  1  0.849894  0.849891  0.419370  1
  O  O749  1  0.944423  0.849930  0.384501  1
  O  O750  1  0.579115  0.688736  0.100159  1
  O  O751  1  0.579074  0.811343  0.284597  1
  O  O752  1  0.579113  0.920882  0.325026  1
  O  O753  1  0.688661  0.920889  0.284601  1
  O  O754  1  0.579077  0.688688  0.410669  1
  O  O755  1  0.579131  0.811345  0.226216  1
  O  O756  1  0.579108  0.920910  0.185805  1
  O  O757  1  0.688696  0.920897  0.226219  1
  O  O758  1  0.920842  0.688710  0.284611  1
  O  O759  1  0.920894  0.811334  0.100146  1
  O  O760  1  0.811320  0.920900  0.100160  1
  O  O761  1  0.920891  0.920916  0.140571  1
  O  O762  1  0.920840  0.811298  0.410671  1
  O  O763  1  0.920878  0.920871  0.370251  1
  O  O764  1  0.811308  0.920830  0.410678  1
  O  O765  1  0.920906  0.688757  0.226229  1
  O  O766  1  0.612958  0.699560  0.439863  1
  O  O767  1  0.612977  0.800497  0.255404  1
  O  O768  1  0.000000  0.699533  0.297111  1
  O  O769  1  0.699523  0.887015  0.255409  1
  O  O770  1  0.800454  0.886990  0.070969  1
  O  O771  1  0.886970  0.800439  0.439863  1
  O  O772  1  0.886993  0.699570  0.255421  1
  O  O773  1  0.000000  0.800451  0.398171  1
  O  O774  1  0.886999  -0.000000  0.366267  1
  O  O775  1  0.800481  -0.000000  0.398186  1
  O  O776  1  0.150455  0.230778  0.465646  1
  O  O777  1  0.069893  0.150410  0.524980  1
  O  O778  1  0.230790  0.069888  0.495345  1
  O  O779  1  0.150414  0.269273  0.650111  1
  O  O780  1  0.150411  0.230783  0.782975  1
  O  O781  1  0.069892  0.150427  0.723648  1
  O  O782  1  0.230791  0.069907  0.753287  1
  O  O783  1  0.150410  0.269229  0.598533  1
  O  O784  1  0.069903  0.230759  0.495336  1
  O  O785  1  0.230819  0.150444  0.465650  1
  O  O786  1  0.150414  0.069895  0.524977  1
  O  O787  1  0.069871  0.269247  0.679800  1
  O  O788  1  0.430115  0.230798  0.679799  1
  O  O789  1  0.269203  0.150427  0.650102  1
  O  O790  1  0.349586  0.069951  0.709445  1
  O  O791  1  0.430124  0.269287  0.495367  1
  O  O792  1  0.349600  0.269269  0.782984  1
  O  O793  1  0.349591  0.230767  0.598544  1
  O  O794  1  0.430089  0.150454  0.539203  1
  O  O795  1  0.269202  0.069908  0.568827  1
  O  O796  1  0.349638  0.269272  0.465657  1
  O  O797  1  0.349575  0.230743  0.650109  1
  O  O798  1  0.430110  0.150449  0.709449  1
  O  O799  1  0.269217  0.069894  0.679812  1
  O  O800  1  0.430135  0.269266  0.753285  1
  O  O801  1  0.430153  0.230798  0.568848  1
  O  O802  1  0.269243  0.150437  0.598529  1
  O  O803  1  0.349589  0.069943  0.539193  1
  O  O804  1  0.069896  0.269234  0.568826  1
  O  O805  1  0.069845  0.230802  0.753286  1
  O  O806  1  0.230775  0.150470  0.782980  1
  O  O807  1  0.150397  0.069915  0.723660  1
  O  O808  1  0.211991  0.119617  0.518054  1
  O  O809  1  0.212026  0.212004  0.483996  1
  O  O810  1  0.119616  0.211978  0.518055  1
  O  O811  1  0.211991  0.288055  0.668452  1
  O  O812  1  0.119567  0.288045  0.702519  1
  O  O813  1  0.211976  0.119636  0.730577  1
  O  O814  1  0.211971  0.212020  0.764625  1
  O  O815  1  0.119579  0.212023  0.730572  1
  O  O816  1  0.211974  0.288026  0.580185  1
  O  O817  1  0.119619  0.288004  0.546109  1
  O  O818  1  0.287990  0.119653  0.702516  1
  O  O819  1  0.380399  0.212026  0.702518  1
  O  O820  1  0.287998  0.211966  0.668456  1
  O  O821  1  0.380415  0.288083  0.518086  1
  O  O822  1  0.288049  0.288054  0.483989  1
  O  O823  1  0.288022  0.288058  0.764635  1
  O  O824  1  0.380418  0.288063  0.730567  1
  O  O825  1  0.287997  0.119642  0.546116  1
  O  O826  1  0.288047  0.212003  0.580184  1
  O  O827  1  0.380398  0.212044  0.546138  1
  O  O828  1  0.208580  0.208582  0.588468  1
  O  O829  1  0.402831  0.208624  0.516825  1
  O  O830  1  0.208539  0.097166  0.701270  1
  O  O831  1  0.208552  0.291465  0.772912  1
  O  O832  1  0.402860  0.291474  0.701253  1
  O  O833  1  0.208545  0.208592  0.660172  1
  O  O834  1  0.402845  0.208604  0.731830  1
  O  O835  1  0.208547  0.097179  0.547368  1
  O  O836  1  0.208592  0.291455  0.475707  1
  O  O837  1  0.402892  0.291491  0.547396  1
  O  O838  1  0.097153  0.208579  0.701260  1
  O  O839  1  0.291437  0.208615  0.772915  1
  O  O840  1  0.291455  0.097190  0.516806  1
  O  O841  1  0.097157  0.291420  0.516797  1
  O  O842  1  0.291432  0.291445  0.588478  1
  O  O843  1  0.291441  0.097206  0.731827  1
  O  O844  1  0.291434  0.291420  0.660160  1
  O  O845  1  0.097110  0.291477  0.731827  1
  O  O846  1  0.291491  0.208593  0.475720  1
  O  O847  1  0.097166  0.208556  0.547369  1
  O  O848  1  0.148390  0.258295  0.494595  1
  O  O849  1  0.148370  0.148372  0.535133  1
  O  O850  1  0.258324  0.148376  0.494598  1
  O  O851  1  0.148367  0.241757  0.679063  1
  O  O852  1  0.148328  0.258334  0.754029  1
  O  O853  1  0.148366  0.148399  0.713499  1
  O  O854  1  0.258298  0.148402  0.754033  1
  O  O855  1  0.148369  0.241705  0.569579  1
  O  O856  1  0.351622  0.258298  0.679055  1
  O  O857  1  0.241654  0.148355  0.679051  1
  O  O858  1  0.351615  0.148431  0.719595  1
  O  O859  1  0.351645  0.241785  0.494617  1
  O  O860  1  0.351643  0.241766  0.754031  1
  O  O861  1  0.351681  0.258352  0.569603  1
  O  O862  1  0.351609  0.148440  0.529051  1
  O  O863  1  0.241704  0.148394  0.569577  1
  O  O864  1  0.150092  0.055577  0.495212  1
  O  O865  1  0.150130  0.150099  0.460361  1
  O  O866  1  0.055582  0.150075  0.495211  1
  O  O867  1  0.150098  0.055588  0.753426  1
  O  O868  1  0.150091  0.150093  0.788264  1
  O  O869  1  0.055551  0.150115  0.753414  1
  O  O870  1  0.349919  0.055618  0.679681  1
  O  O871  1  0.444444  0.150114  0.679683  1
  O  O872  1  0.349904  0.150071  0.644820  1
  O  O873  1  0.349888  0.055594  0.568958  1
  O  O874  1  0.349928  0.150075  0.603819  1
  O  O875  1  0.444439  0.150105  0.568967  1
  O  O876  1  0.079168  0.188698  0.469044  1
  O  O877  1  0.079135  0.079132  0.509457  1
  O  O878  1  0.188747  0.079149  0.469048  1
  O  O879  1  0.079128  0.311331  0.653507  1
  O  O880  1  0.079124  0.188723  0.779580  1
  O  O881  1  0.079138  0.079166  0.739185  1
  O  O882  1  0.188754  0.079150  0.779587  1
  O  O883  1  0.079133  0.311296  0.595125  1
  O  O884  1  0.420868  0.188694  0.653512  1
  O  O885  1  0.311267  0.079150  0.653510  1
  O  O886  1  0.420869  0.079176  0.693927  1
  O  O887  1  0.420904  0.311345  0.469064  1
  O  O888  1  0.420893  0.311325  0.779582  1
  O  O889  1  0.420884  0.188711  0.595138  1
  O  O890  1  0.420849  0.079170  0.554722  1
  O  O891  1  0.311269  0.079142  0.595127  1
  O  O892  1  0.000000  0.113032  0.513462  1
  O  O893  1  0.113060  0.199572  0.808763  1
  O  O894  1  0.113026  0.300452  0.624322  1
  O  O895  1  0.199579  -0.000000  0.767085  1
  O  O896  1  0.199553  0.000000  0.481545  1
  O  O897  1  0.113022  -0.000000  0.513464  1
  O  O898  1  0.113001  -0.000000  0.735180  1
  O  O899  1  0.199605  0.113068  0.808767  1
  O  O900  1  0.300426  0.113036  0.624316  1
  O  O901  1  0.387009  0.300478  0.439868  1
  O  O902  1  0.386976  0.199539  0.624325  1
  O  O903  1  0.386980  -0.000000  0.697934  1
  O  O904  1  0.300479  -0.000000  0.666009  1
  O  O905  1  0.300409  -0.000000  0.582629  1
  O  O906  1  0.386957  0.000000  0.550713  1
  O  O907  1  -0.000000  0.113031  0.735159  1
  O  O908  1  0.000000  0.300476  0.582622  1
  O  O909  1  0.499985  0.113047  0.550711  1
  O  O910  1  -0.000000  0.199546  0.481534  1
  O  O911  1  0.069808  0.650386  0.709460  1
  O  O912  1  0.230718  0.569923  0.679826  1
  O  O913  1  0.069852  0.349628  0.709440  1
  O  O914  1  0.230783  0.430127  0.679802  1
  O  O915  1  0.069897  0.650429  0.539205  1
  O  O916  1  0.230734  0.569862  0.568836  1
  O  O917  1  0.069882  0.349565  0.539180  1
  O  O918  1  0.230733  0.430087  0.568822  1
  O  O919  1  0.230765  0.650423  0.650110  1
  O  O920  1  0.150360  0.569876  0.709458  1
  O  O921  1  0.230780  0.349596  0.650094  1
  O  O922  1  0.150411  0.430094  0.709430  1
  O  O923  1  0.269244  0.650434  0.465665  1
  O  O924  1  0.349599  0.569911  0.525004  1
  O  O925  1  0.269268  0.349616  0.465641  1
  O  O926  1  0.349603  0.430148  0.524997  1
  O  O927  1  0.430150  0.349620  0.723643  1
  O  O928  1  0.269236  0.430121  0.753270  1
  O  O929  1  0.430041  0.650437  0.723651  1
  O  O930  1  0.269190  0.569885  0.753298  1
  O  O931  1  0.430155  0.349642  0.525007  1
  O  O932  1  0.269275  0.430114  0.495354  1
  O  O933  1  0.430093  0.650434  0.525007  1
  O  O934  1  0.269236  0.569893  0.495363  1
  O  O935  1  0.269234  0.349604  0.782981  1
  O  O936  1  0.349616  0.430125  0.723641  1
  O  O937  1  0.269211  0.650404  0.783001  1
  O  O938  1  0.349535  0.569906  0.723650  1
  O  O939  1  0.230755  0.349596  0.598528  1
  O  O940  1  0.150413  0.430092  0.539170  1
  O  O941  1  0.230759  0.650337  0.598552  1
  O  O942  1  0.150391  0.569890  0.539192  1
  O  O943  1  0.211907  0.619645  0.702538  1
  O  O944  1  0.211997  0.380373  0.702506  1
  O  O945  1  0.211972  0.619608  0.546130  1
  O  O946  1  0.211977  0.380357  0.546106  1
  O  O947  1  0.288015  0.619618  0.518080  1
  O  O948  1  0.288062  0.380387  0.518068  1
  O  O949  1  0.288034  0.380395  0.730561  1
  O  O950  1  0.287961  0.619623  0.730587  1
  O  O951  1  0.208588  0.402818  0.516798  1
  O  O952  1  0.208561  0.597162  0.516817  1
  O  O953  1  0.208567  0.402837  0.731813  1
  O  O954  1  0.208504  0.597154  0.731846  1
  O  O955  1  0.291461  0.402860  0.701254  1
  O  O956  1  0.291371  0.597200  0.701276  1
  O  O957  1  0.291429  0.597150  0.547389  1
  O  O958  1  0.291429  0.402855  0.547375  1
  O  O959  1  0.148279  0.648338  0.719625  1
  O  O960  1  0.258239  0.648406  0.679070  1
  O  O961  1  0.148353  0.351638  0.719590  1
  O  O962  1  0.258338  0.351662  0.679041  1
  O  O963  1  0.148370  0.648372  0.529045  1
  O  O964  1  0.258294  0.648326  0.569603  1
  O  O965  1  0.148367  0.351611  0.529021  1
  O  O966  1  0.258290  0.351623  0.569577  1
  O  O967  1  0.241715  0.648374  0.494616  1
  O  O968  1  0.351615  0.648385  0.535165  1
  O  O969  1  0.241752  0.351645  0.494595  1
  O  O970  1  0.351680  0.351689  0.535168  1
  O  O971  1  0.351669  0.351664  0.713482  1
  O  O972  1  0.241708  0.351652  0.754025  1
  O  O973  1  0.351562  0.648403  0.713502  1
  O  O974  1  0.241663  0.648358  0.754052  1
  O  O975  1  0.150035  0.555575  0.679690  1
  O  O976  1  0.150081  0.650068  0.644833  1
  O  O977  1  0.055516  0.650040  0.679694  1
  O  O978  1  0.150083  0.444432  0.679668  1
  O  O979  1  0.150085  0.349953  0.644817  1
  O  O980  1  0.055539  0.349934  0.679674  1
  O  O981  1  0.150037  0.555543  0.568954  1
  O  O982  1  0.150064  0.650030  0.603833  1
  O  O983  1  0.055580  0.650075  0.568969  1
  O  O984  1  0.150048  0.444408  0.568937  1
  O  O985  1  0.150068  0.349909  0.603820  1
  O  O986  1  0.055584  0.349922  0.568948  1
  O  O987  1  0.349925  0.555594  0.495236  1
  O  O988  1  0.444431  0.650132  0.495241  1
  O  O989  1  0.349931  0.650093  0.460381  1
  O  O990  1  0.349959  0.444454  0.495229  1
  O  O991  1  0.444456  0.349966  0.495237  1
  O  O992  1  0.349960  0.349957  0.460363  1
  O  O993  1  0.349932  0.444437  0.753406  1
  O  O994  1  0.349937  0.349940  0.788267  1
  O  O995  1  0.444467  0.349945  0.753413  1
  O  O996  1  0.349881  0.555572  0.753415  1
  O  O997  1  0.349905  0.650078  0.788284  1
  O  O998  1  0.444372  0.650090  0.753416  1
  O  O999  1  0.079068  0.579102  0.693942  1
  O  O1000  1  0.188692  0.579139  0.653524  1
  O  O1001  1  0.079119  0.420875  0.693909  1
  O  O1002  1  0.188738  0.420894  0.653501  1
  O  O1003  1  0.079104  0.579122  0.554709  1
  O  O1004  1  0.188657  0.579080  0.595133  1
  O  O1005  1  0.079123  0.420857  0.554687  1
  O  O1006  1  0.188650  0.420848  0.595116  1
  O  O1007  1  0.311301  0.579148  0.469067  1
  O  O1008  1  0.420869  0.579172  0.509478  1
  O  O1009  1  0.311335  0.420894  0.469054  1
  O  O1010  1  0.420898  0.420911  0.509483  1
  O  O1011  1  0.420900  0.420891  0.739166  1
  O  O1012  1  0.311301  0.420869  0.779570  1
  O  O1013  1  0.420809  0.579152  0.739168  1
  O  O1014  1  0.311281  0.579126  0.779591  1
  O  O1015  1  0.199553  0.500022  0.666018  1
  O  O1016  1  0.000000  0.386996  0.550698  1
  O  O1017  1  0.199505  0.499969  0.582619  1
  O  O1018  1  0.112999  0.499984  0.697927  1
  O  O1019  1  0.199531  0.612970  0.624331  1
  O  O1020  1  0.199549  0.386993  0.624311  1
  O  O1021  1  0.387003  0.500034  0.513481  1
  O  O1022  1  0.300446  0.613029  0.439880  1
  O  O1023  1  0.300476  0.387005  0.808764  1
  O  O1024  1  0.300435  0.499995  0.767082  1
  O  O1025  1  0.300470  0.500012  0.481562  1
  O  O1026  1  0.386973  0.500016  0.735163  1
  O  O1027  1  0.112997  0.499988  0.550689  1
  O  O1028  1  0.499930  0.613018  0.735158  1
  O  O1029  1  0.499995  0.613070  0.513490  1
  O  O1030  1  0.150382  0.730761  0.650117  1
  O  O1031  1  0.150416  0.769230  0.465659  1
  O  O1032  1  0.069898  0.849592  0.525011  1
  O  O1033  1  0.230767  0.930127  0.495352  1
  O  O1034  1  0.150434  0.730722  0.598558  1
  O  O1035  1  0.150378  0.769237  0.782987  1
  O  O1036  1  0.069898  0.849604  0.723644  1
  O  O1037  1  0.230757  0.930105  0.753287  1
  O  O1038  1  0.069861  0.730732  0.679816  1
  O  O1039  1  0.069895  0.769247  0.495365  1
  O  O1040  1  0.230768  0.849581  0.465654  1
  O  O1041  1  0.150419  0.930129  0.524994  1
  O  O1042  1  0.430109  0.730815  0.495375  1
  O  O1043  1  0.430077  0.769286  0.679818  1
  O  O1044  1  0.269176  0.849621  0.650113  1
  O  O1045  1  0.349582  0.930164  0.709453  1
  O  O1046  1  0.349577  0.769227  0.598562  1
  O  O1047  1  0.430060  0.849606  0.539219  1
  O  O1048  1  0.269202  0.930104  0.568845  1
  O  O1049  1  0.349551  0.730765  0.783004  1
  O  O1050  1  0.349543  0.769285  0.650122  1
  O  O1051  1  0.430095  0.849625  0.709467  1
  O  O1052  1  0.269247  0.930168  0.679808  1
  O  O1053  1  0.349586  0.730780  0.465667  1
  O  O1054  1  0.430111  0.769255  0.568852  1
  O  O1055  1  0.269237  0.849576  0.598533  1
  O  O1056  1  0.349570  0.930137  0.539200  1
  O  O1057  1  0.430062  0.730780  0.753293  1
  O  O1058  1  0.069872  0.769258  0.753282  1
  O  O1059  1  0.230729  0.849583  0.782979  1
  O  O1060  1  0.150389  0.930150  0.723648  1
  O  O1061  1  0.069936  0.730764  0.568847  1
  O  O1062  1  0.211960  0.712000  0.668454  1
  O  O1063  1  0.119562  0.711945  0.702531  1
  O  O1064  1  0.211985  0.880406  0.518070  1
  O  O1065  1  0.211973  0.788032  0.484008  1
  O  O1066  1  0.119620  0.788023  0.518083  1
  O  O1067  1  0.212002  0.711927  0.580216  1
  O  O1068  1  0.119650  0.711985  0.546133  1
  O  O1069  1  0.211951  0.880407  0.730566  1
  O  O1070  1  0.211941  0.788006  0.764638  1
  O  O1071  1  0.119622  0.788036  0.730569  1
  O  O1072  1  0.380369  0.712007  0.518085  1
  O  O1073  1  0.288027  0.711993  0.484016  1
  O  O1074  1  0.288008  0.880443  0.702520  1
  O  O1075  1  0.380365  0.788060  0.702535  1
  O  O1076  1  0.287966  0.788068  0.668465  1
  O  O1077  1  0.287995  0.880410  0.546128  1
  O  O1078  1  0.288039  0.787971  0.580201  1
  O  O1079  1  0.380343  0.788015  0.546152  1
  O  O1080  1  0.287986  0.711968  0.764656  1
  O  O1081  1  0.380326  0.712016  0.730580  1
  O  O1082  1  0.208551  0.902918  0.701263  1
  O  O1083  1  0.208528  0.708559  0.772935  1
  O  O1084  1  0.402787  0.708598  0.701271  1
  O  O1085  1  0.208599  0.791395  0.588489  1
  O  O1086  1  0.402810  0.791458  0.516839  1
  O  O1087  1  0.208548  0.902840  0.547387  1
  O  O1088  1  0.208570  0.708574  0.475730  1
  O  O1089  1  0.402839  0.708570  0.547395  1
  O  O1090  1  0.208511  0.791468  0.660184  1
  O  O1091  1  0.402788  0.791473  0.731848  1
  O  O1092  1  0.291433  0.902858  0.516814  1
  O  O1093  1  0.097164  0.708578  0.516824  1
  O  O1094  1  0.291444  0.708512  0.588503  1
  O  O1095  1  0.097144  0.791427  0.701265  1
  O  O1096  1  0.291388  0.791430  0.772931  1
  O  O1097  1  0.291432  0.791442  0.475726  1
  O  O1098  1  0.097213  0.791446  0.547400  1
  O  O1099  1  0.291414  0.902862  0.731832  1
  O  O1100  1  0.291411  0.708603  0.660182  1
  O  O1101  1  0.097100  0.708578  0.731835  1
  O  O1102  1  0.148342  0.758259  0.679071  1
  O  O1103  1  0.148369  0.741718  0.494616  1
  O  O1104  1  0.148379  0.851644  0.535154  1
  O  O1105  1  0.258288  0.851651  0.494607  1
  O  O1106  1  0.148416  0.758257  0.569605  1
  O  O1107  1  0.148335  0.741698  0.754036  1
  O  O1108  1  0.148352  0.851671  0.713476  1
  O  O1109  1  0.258253  0.851614  0.754026  1
  O  O1110  1  0.351632  0.758325  0.494620  1
  O  O1111  1  0.351590  0.741769  0.679072  1
  O  O1112  1  0.241668  0.851698  0.679062  1
  O  O1113  1  0.351609  0.851677  0.719607  1
  O  O1114  1  0.351661  0.741647  0.569620  1
  O  O1115  1  0.351591  0.851636  0.529062  1
  O  O1116  1  0.241718  0.851592  0.569585  1
  O  O1117  1  0.351588  0.758298  0.754052  1
  O  O1118  1  0.150082  0.944430  0.495222  1
  O  O1119  1  0.150086  0.849912  0.460365  1
  O  O1120  1  0.055596  0.849928  0.495241  1
  O  O1121  1  0.150078  0.944452  0.753417  1
  O  O1122  1  0.150047  0.849926  0.788272  1
  O  O1123  1  0.055559  0.849934  0.753411  1
  O  O1124  1  0.349949  0.944459  0.679684  1
  O  O1125  1  0.444405  0.849976  0.679701  1
  O  O1126  1  0.349862  0.849958  0.644824  1
  O  O1127  1  0.349891  0.944463  0.568964  1
  O  O1128  1  0.349906  0.849933  0.603830  1
  O  O1129  1  0.444407  0.849962  0.568978  1
  O  O1130  1  0.079120  0.688649  0.653525  1
  O  O1131  1  0.079152  0.811312  0.469066  1
  O  O1132  1  0.079146  0.920869  0.509481  1
  O  O1133  1  0.188704  0.920864  0.469053  1
  O  O1134  1  0.079139  0.688684  0.595142  1
  O  O1135  1  0.079099  0.811303  0.779583  1
  O  O1136  1  0.079130  0.920883  0.739172  1
  O  O1137  1  0.188691  0.920876  0.779584  1
  O  O1138  1  0.420871  0.688746  0.469073  1
  O  O1139  1  0.420810  0.811380  0.653529  1
  O  O1140  1  0.311282  0.920898  0.653511  1
  O  O1141  1  0.420883  0.920924  0.693951  1
  O  O1142  1  0.420854  0.811315  0.595147  1
  O  O1143  1  0.420842  0.920907  0.554725  1
  O  O1144  1  0.311282  0.920881  0.595134  1
  O  O1145  1  0.420838  0.688713  0.779591  1
  O  O1146  1  0.113009  0.699511  0.624335  1
  O  O1147  1  0.113010  0.800442  0.439871  1
  O  O1148  1  0.499997  0.699612  0.481570  1
  O  O1149  1  0.499949  0.800508  0.666011  1
  O  O1150  1  0.199554  0.886963  0.439865  1
  O  O1151  1  0.300393  0.886989  0.624321  1
  O  O1152  1  0.499997  0.886997  0.697948  1
  O  O1153  1  0.386957  0.800483  0.624337  1
  O  O1154  1  0.386970  0.699561  0.439881  1
  O  O1155  1  0.499956  0.699548  0.767078  1
  O  O1156  1  0.000000  0.699583  0.582630  1
  O  O1157  1  0.000000  0.887009  0.513481  1
  O  O1158  1  0.499966  0.887016  0.550712  1
  O  O1159  1  -0.000000  0.886992  0.735157  1
  O  O1160  1  -0.000000  0.800490  0.481558  1
  O  O1161  1  0.499989  0.800496  0.582639  1
  O  O1162  1  0.650446  0.230737  0.650116  1
  O  O1163  1  0.569910  0.150403  0.709454  1
  O  O1164  1  0.730788  0.069862  0.679809  1
  O  O1165  1  0.650451  0.269276  0.465666  1
  O  O1166  1  0.650430  0.230778  0.598540  1
  O  O1167  1  0.569878  0.150440  0.539192  1
  O  O1168  1  0.730768  0.069916  0.568834  1
  O  O1169  1  0.650440  0.269239  0.782996  1
  O  O1170  1  0.569912  0.230768  0.679812  1
  O  O1171  1  0.730796  0.150399  0.650106  1
  O  O1172  1  0.650412  0.069883  0.709440  1
  O  O1173  1  0.569919  0.269284  0.495364  1
  O  O1174  1  0.930157  0.230800  0.495342  1
  O  O1175  1  0.769246  0.150444  0.465667  1
  O  O1176  1  0.849620  0.069933  0.525007  1
  O  O1177  1  0.930103  0.269254  0.679804  1
  O  O1178  1  0.849604  0.269289  0.598526  1
  O  O1179  1  0.849552  0.230709  0.782975  1
  O  O1180  1  0.930107  0.150410  0.723637  1
  O  O1181  1  0.769243  0.069825  0.753289  1
  O  O1182  1  0.849593  0.269249  0.650090  1
  O  O1183  1  0.849596  0.230789  0.465640  1
  O  O1184  1  0.930135  0.150459  0.524984  1
  O  O1185  1  0.769242  0.069933  0.495370  1
  O  O1186  1  0.930119  0.269285  0.568825  1
  O  O1187  1  0.930086  0.230768  0.753283  1
  O  O1188  1  0.769198  0.150375  0.782990  1
  O  O1189  1  0.849613  0.069880  0.723658  1
  O  O1190  1  0.569916  0.269227  0.753291  1
  O  O1191  1  0.569906  0.230781  0.568840  1
  O  O1192  1  0.730792  0.150431  0.598543  1
  O  O1193  1  0.650419  0.069929  0.539196  1
  O  O1194  1  0.712014  0.119591  0.702519  1
  O  O1195  1  0.712025  0.211943  0.668460  1
  O  O1196  1  0.619638  0.211962  0.702528  1
  O  O1197  1  0.712020  0.288069  0.484013  1
  O  O1198  1  0.619645  0.288067  0.518080  1
  O  O1199  1  0.711994  0.119660  0.546129  1
  O  O1200  1  0.712003  0.211995  0.580197  1
  O  O1201  1  0.619612  0.212007  0.546122  1
  O  O1202  1  0.711995  0.288027  0.764645  1
  O  O1203  1  0.619648  0.288007  0.730576  1
  O  O1204  1  0.788050  0.119657  0.518084  1
  O  O1205  1  0.880418  0.212031  0.518056  1
  O  O1206  1  0.788068  0.212034  0.484002  1
  O  O1207  1  0.880368  0.288032  0.702517  1
  O  O1208  1  0.788038  0.288013  0.668442  1
  O  O1209  1  0.788027  0.288052  0.580182  1
  O  O1210  1  0.880387  0.288068  0.546110  1
  O  O1211  1  0.788021  0.119576  0.730582  1
  O  O1212  1  0.787990  0.211924  0.764631  1
  O  O1213  1  0.880383  0.211985  0.730564  1
  O  O1214  1  0.708559  0.208546  0.772925  1
  O  O1215  1  0.902821  0.208566  0.701255  1
  O  O1216  1  0.708582  0.097218  0.516821  1
  O  O1217  1  0.708574  0.291455  0.588471  1
  O  O1218  1  0.902866  0.291488  0.516800  1
  O  O1219  1  0.708605  0.208613  0.475731  1
  O  O1220  1  0.902868  0.208623  0.547367  1
  O  O1221  1  0.708574  0.097097  0.731826  1
  O  O1222  1  0.708584  0.291408  0.660176  1
  O  O1223  1  0.902824  0.291447  0.731826  1
  O  O1224  1  0.597175  0.208606  0.516814  1
  O  O1225  1  0.791463  0.208602  0.588475  1
  O  O1226  1  0.791463  0.097122  0.701270  1
  O  O1227  1  0.597205  0.291429  0.701266  1
  O  O1228  1  0.791431  0.291397  0.772922  1
  O  O1229  1  0.791467  0.097206  0.547390  1
  O  O1230  1  0.791469  0.291493  0.475719  1
  O  O1231  1  0.597184  0.291474  0.547388  1
  O  O1232  1  0.791465  0.208550  0.660161  1
  O  O1233  1  0.597197  0.208545  0.731838  1
  O  O1234  1  0.648409  0.258252  0.679068  1
  O  O1235  1  0.648401  0.148347  0.719604  1
  O  O1236  1  0.758355  0.148325  0.679054  1
  O  O1237  1  0.648403  0.241760  0.494617  1
  O  O1238  1  0.648389  0.258291  0.569586  1
  O  O1239  1  0.648369  0.148404  0.529044  1
  O  O1240  1  0.758316  0.148390  0.569595  1
  O  O1241  1  0.648390  0.241713  0.754042  1
  O  O1242  1  0.851694  0.258347  0.494589  1
  O  O1243  1  0.741761  0.148432  0.494623  1
  O  O1244  1  0.851666  0.148422  0.535153  1
  O  O1245  1  0.851643  0.241717  0.679045  1
  O  O1246  1  0.851645  0.241748  0.569576  1
  O  O1247  1  0.851601  0.258261  0.754025  1
  O  O1248  1  0.851623  0.148361  0.713495  1
  O  O1249  1  0.741669  0.148293  0.754042  1
  O  O1250  1  0.650080  0.055580  0.679677  1
  O  O1251  1  0.650097  0.150066  0.644823  1
  O  O1252  1  0.555568  0.150095  0.679686  1
  O  O1253  1  0.650067  0.055599  0.568959  1
  O  O1254  1  0.650101  0.150093  0.603826  1
  O  O1255  1  0.555579  0.150090  0.568959  1
  O  O1256  1  0.849921  0.055599  0.495239  1
  O  O1257  1  0.944440  0.150108  0.495216  1
  O  O1258  1  0.849919  0.150085  0.460368  1
  O  O1259  1  0.849944  0.055555  0.753426  1
  O  O1260  1  0.849882  0.150028  0.788273  1
  O  O1261  1  0.944426  0.150084  0.753402  1
  O  O1262  1  0.579150  0.188696  0.653516  1
  O  O1263  1  0.579126  0.079144  0.693923  1
  O  O1264  1  0.688727  0.079127  0.653510  1
  O  O1265  1  0.579156  0.311331  0.469066  1
  O  O1266  1  0.579159  0.188698  0.595133  1
  O  O1267  1  0.579118  0.079154  0.554707  1
  O  O1268  1  0.688706  0.079152  0.595129  1
  O  O1269  1  0.579162  0.311298  0.779590  1
  O  O1270  1  0.920872  0.188719  0.469046  1
  O  O1271  1  0.811293  0.079151  0.469070  1
  O  O1272  1  0.920874  0.079172  0.509471  1
  O  O1273  1  0.920859  0.311320  0.653504  1
  O  O1274  1  0.920880  0.311357  0.595121  1
  O  O1275  1  0.920827  0.188651  0.779571  1
  O  O1276  1  0.920889  0.079130  0.739168  1
  O  O1277  1  0.811262  0.079084  0.779595  1
  O  O1278  1  0.613046  0.199557  0.624327  1
  O  O1279  1  0.613055  0.300461  0.439878  1
  O  O1280  1  0.699534  -0.000000  0.666007  1
  O  O1281  1  0.886999  0.000000  0.513484  1
  O  O1282  1  0.699572  0.113018  0.624321  1
  O  O1283  1  0.500022  0.300487  0.481570  1
  O  O1284  1  0.800408  0.113015  0.439879  1
  O  O1285  1  0.886986  0.300502  0.624311  1
  O  O1286  1  0.886957  0.199526  0.808761  1
  O  O1287  1  0.699545  -0.000000  0.582624  1
  O  O1288  1  0.613015  -0.000000  0.550705  1
  O  O1289  1  0.800443  -0.000000  0.481571  1
  O  O1290  1  0.500002  0.113043  0.697936  1
  O  O1291  1  0.500012  0.199574  0.666009  1
  O  O1292  1  0.613000  -0.000000  0.697926  1
  O  O1293  1  -0.000000  0.300466  0.666002  1
  O  O1294  1  0.000000  0.199557  0.767087  1
  O  O1295  1  0.500029  0.300457  0.767087  1
  O  O1296  1  0.500028  0.199551  0.582641  1
  O  O1297  1  0.569896  0.650472  0.525001  1
  O  O1298  1  0.730753  0.569951  0.495343  1
  O  O1299  1  0.569914  0.349634  0.525003  1
  O  O1300  1  0.730766  0.430178  0.495357  1
  O  O1301  1  0.569806  0.650408  0.723632  1
  O  O1302  1  0.730694  0.569908  0.753272  1
  O  O1303  1  0.569926  0.349577  0.723650  1
  O  O1304  1  0.730785  0.430125  0.753295  1
  O  O1305  1  0.730748  0.650467  0.465635  1
  O  O1306  1  0.650422  0.569956  0.524988  1
  O  O1307  1  0.730789  0.349634  0.465666  1
  O  O1308  1  0.650412  0.430182  0.525001  1
  O  O1309  1  0.769202  0.650452  0.650088  1
  O  O1310  1  0.849492  0.569935  0.709434  1
  O  O1311  1  0.769224  0.349588  0.650105  1
  O  O1312  1  0.849582  0.430143  0.709440  1
  O  O1313  1  0.930102  0.349643  0.539185  1
  O  O1314  1  0.769242  0.430156  0.568836  1
  O  O1315  1  0.930119  0.650469  0.539192  1
  O  O1316  1  0.769257  0.569946  0.568820  1
  O  O1317  1  0.930093  0.349612  0.709438  1
  O  O1318  1  0.769214  0.430109  0.679803  1
  O  O1319  1  0.930029  0.650430  0.709446  1
  O  O1320  1  0.769140  0.569926  0.679793  1
  O  O1321  1  0.769237  0.349614  0.598530  1
  O  O1322  1  0.849597  0.430155  0.539197  1
  O  O1323  1  0.769277  0.650447  0.598524  1
  O  O1324  1  0.849607  0.569937  0.539172  1
  O  O1325  1  0.730793  0.349586  0.782994  1
  O  O1326  1  0.650436  0.430111  0.723651  1
  O  O1327  1  0.730706  0.650432  0.782972  1
  O  O1328  1  0.650334  0.569885  0.723634  1
  O  O1329  1  0.711991  0.619684  0.518056  1
  O  O1330  1  0.711978  0.380455  0.518072  1
  O  O1331  1  0.711883  0.619629  0.730557  1
  O  O1332  1  0.712015  0.380397  0.730580  1
  O  O1333  1  0.787921  0.619667  0.702503  1
  O  O1334  1  0.788033  0.380402  0.702522  1
  O  O1335  1  0.788026  0.380429  0.546123  1
  O  O1336  1  0.788047  0.619665  0.546100  1
  O  O1337  1  0.708581  0.402832  0.701266  1
  O  O1338  1  0.708470  0.597191  0.701243  1
  O  O1339  1  0.708570  0.402903  0.547383  1
  O  O1340  1  0.708590  0.597226  0.547367  1
  O  O1341  1  0.791433  0.402912  0.516816  1
  O  O1342  1  0.791450  0.597226  0.516788  1
  O  O1343  1  0.791344  0.597204  0.731813  1
  O  O1344  1  0.791457  0.402867  0.731835  1
  O  O1345  1  0.648386  0.648430  0.535146  1
  O  O1346  1  0.758278  0.648426  0.494586  1
  O  O1347  1  0.648379  0.351695  0.535160  1
  O  O1348  1  0.758312  0.351695  0.494614  1
  O  O1349  1  0.648269  0.648363  0.713473  1
  O  O1350  1  0.758194  0.648398  0.754018  1
  O  O1351  1  0.648408  0.351626  0.713499  1
  O  O1352  1  0.758324  0.351646  0.754044  1
  O  O1353  1  0.741626  0.648407  0.679035  1
  O  O1354  1  0.851535  0.648421  0.719587  1
  O  O1355  1  0.741734  0.351613  0.679061  1
  O  O1356  1  0.851640  0.351661  0.719603  1
  O  O1357  1  0.851630  0.351680  0.529030  1
  O  O1358  1  0.741706  0.351671  0.569583  1
  O  O1359  1  0.851652  0.648424  0.529023  1
  O  O1360  1  0.741761  0.648428  0.569569  1
  O  O1361  1  0.650060  0.555634  0.495223  1
  O  O1362  1  0.650054  0.650123  0.460360  1
  O  O1363  1  0.555560  0.650135  0.495237  1
  O  O1364  1  0.650080  0.444492  0.495232  1
  O  O1365  1  0.650100  0.349954  0.460377  1
  O  O1366  1  0.555598  0.349967  0.495235  1
  O  O1367  1  0.650015  0.555570  0.753404  1
  O  O1368  1  0.650020  0.650084  0.788265  1
  O  O1369  1  0.555513  0.650067  0.753400  1
  O  O1370  1  0.650092  0.444428  0.753417  1
  O  O1371  1  0.650108  0.349926  0.788282  1
  O  O1372  1  0.555604  0.349910  0.753417  1
  O  O1373  1  0.849829  0.555598  0.679672  1
  O  O1374  1  0.944387  0.650096  0.679685  1
  O  O1375  1  0.849896  0.650095  0.644819  1
  O  O1376  1  0.849886  0.444470  0.679670  1
  O  O1377  1  0.944404  0.349944  0.679672  1
  O  O1378  1  0.849909  0.349945  0.644815  1
  O  O1379  1  0.849934  0.444480  0.568962  1
  O  O1380  1  0.849924  0.349975  0.603813  1
  O  O1381  1  0.944441  0.349965  0.568951  1
  O  O1382  1  0.849930  0.555615  0.568942  1
  O  O1383  1  0.849965  0.650112  0.603818  1
  O  O1384  1  0.944435  0.650129  0.568960  1
  O  O1385  1  0.579124  0.579193  0.509481  1
  O  O1386  1  0.688679  0.579184  0.469049  1
  O  O1387  1  0.579146  0.420921  0.509480  1
  O  O1388  1  0.688705  0.420911  0.469062  1
  O  O1389  1  0.579061  0.579117  0.739154  1
  O  O1390  1  0.688646  0.579144  0.779572  1
  O  O1391  1  0.579162  0.420851  0.739171  1
  O  O1392  1  0.688722  0.420873  0.779590  1
  O  O1393  1  0.811229  0.579153  0.653500  1
  O  O1394  1  0.920775  0.579166  0.693919  1
  O  O1395  1  0.811265  0.420889  0.653503  1
  O  O1396  1  0.920836  0.420900  0.693913  1
  O  O1397  1  0.920879  0.420917  0.554712  1
  O  O1398  1  0.811288  0.420918  0.595133  1
  O  O1399  1  0.920868  0.579185  0.554705  1
  O  O1400  1  0.811341  0.579176  0.595117  1
  O  O1401  1  0.699532  0.500057  0.481553  1
  O  O1402  1  0.500031  0.387033  0.513484  1
  O  O1403  1  -0.000000  0.612995  0.697938  1
  O  O1404  1  0.699524  0.500014  0.767082  1
  O  O1405  1  0.613014  0.500066  0.513478  1
  O  O1406  1  0.699514  0.613051  0.808761  1
  O  O1407  1  0.699583  0.386991  0.439876  1
  O  O1408  1  0.886922  0.500040  0.697920  1
  O  O1409  1  0.800458  0.613050  0.624309  1
  O  O1410  1  0.800425  0.386990  0.624317  1
  O  O1411  1  0.800460  0.500053  0.582624  1
  O  O1412  1  0.800371  0.500021  0.666004  1
  O  O1413  1  0.886994  0.500046  0.550703  1
  O  O1414  1  0.612992  0.499986  0.735163  1
  O  O1415  1  0.000000  0.387024  0.697915  1
  O  O1416  1  0.500037  0.386990  0.735166  1
  O  O1417  1  0.000000  0.613054  0.550712  1
  O  O1418  1  0.650384  0.730813  0.465640  1
  O  O1419  1  0.650356  0.769278  0.650088  1
  O  O1420  1  0.569899  0.849587  0.709441  1
  O  O1421  1  0.730742  0.930116  0.679801  1
  O  O1422  1  0.650341  0.730772  0.782983  1
  O  O1423  1  0.650420  0.769259  0.598535  1
  O  O1424  1  0.569876  0.849633  0.539191  1
  O  O1425  1  0.730772  0.930137  0.568831  1
  O  O1426  1  0.569898  0.730820  0.495357  1
  O  O1427  1  0.569839  0.769258  0.679794  1
  O  O1428  1  0.730719  0.849612  0.650096  1
  O  O1429  1  0.650392  0.930115  0.709448  1
  O  O1430  1  0.930085  0.730788  0.679804  1
  O  O1431  1  0.930131  0.769287  0.495347  1
  O  O1432  1  0.769253  0.849622  0.465657  1
  O  O1433  1  0.849606  0.930146  0.524997  1
  O  O1434  1  0.849551  0.769222  0.782979  1
  O  O1435  1  0.930113  0.849605  0.723635  1
  O  O1436  1  0.769237  0.930096  0.753286  1
  O  O1437  1  0.849620  0.730802  0.598540  1
  O  O1438  1  0.849600  0.769272  0.465653  1
  O  O1439  1  0.930128  0.849636  0.524989  1
  O  O1440  1  0.769244  0.930130  0.495359  1
  O  O1441  1  0.849559  0.730786  0.650099  1
  O  O1442  1  0.930066  0.769252  0.753276  1
  O  O1443  1  0.769192  0.849582  0.782996  1
  O  O1444  1  0.849571  0.930126  0.723643  1
  O  O1445  1  0.930140  0.730816  0.568830  1
  O  O1446  1  0.569879  0.769277  0.568832  1
  O  O1447  1  0.730769  0.849615  0.598535  1
  O  O1448  1  0.650411  0.930137  0.539193  1
  O  O1449  1  0.569833  0.730757  0.753274  1
  O  O1450  1  0.711964  0.712031  0.483980  1
  O  O1451  1  0.619632  0.712040  0.518067  1
  O  O1452  1  0.711966  0.880399  0.702517  1
  O  O1453  1  0.711921  0.788048  0.668438  1
  O  O1454  1  0.619600  0.788005  0.702504  1
  O  O1455  1  0.711911  0.712008  0.764635  1
  O  O1456  1  0.619547  0.711973  0.730559  1
  O  O1457  1  0.711994  0.880408  0.546123  1
  O  O1458  1  0.712000  0.788038  0.580192  1
  O  O1459  1  0.619616  0.788068  0.546126  1
  O  O1460  1  0.880329  0.712021  0.702510  1
  O  O1461  1  0.787976  0.712012  0.668439  1
  O  O1462  1  0.788032  0.880411  0.518070  1
  O  O1463  1  0.880406  0.788068  0.518062  1
  O  O1464  1  0.788024  0.788053  0.483999  1
  O  O1465  1  0.787998  0.880381  0.730569  1
  O  O1466  1  0.787954  0.788035  0.764645  1
  O  O1467  1  0.880354  0.788061  0.730561  1
  O  O1468  1  0.788064  0.712026  0.580187  1
  O  O1469  1  0.880393  0.712037  0.546117  1
  O  O1470  1  0.708572  0.902862  0.516813  1
  O  O1471  1  0.708595  0.708589  0.588468  1
  O  O1472  1  0.902867  0.708622  0.516807  1
  O  O1473  1  0.708492  0.791453  0.772926  1
  O  O1474  1  0.902813  0.791469  0.701250  1
  O  O1475  1  0.708547  0.902842  0.731830  1
  O  O1476  1  0.708526  0.708609  0.660141  1
  O  O1477  1  0.902762  0.708596  0.731822  1
  O  O1478  1  0.708564  0.791479  0.475705  1
  O  O1479  1  0.902865  0.791484  0.547375  1
  O  O1480  1  0.791415  0.902855  0.701257  1
  O  O1481  1  0.597088  0.708568  0.701245  1
  O  O1482  1  0.791379  0.708575  0.772908  1
  O  O1483  1  0.597175  0.791488  0.516810  1
  O  O1484  1  0.791458  0.791468  0.588479  1
  O  O1485  1  0.791388  0.791458  0.660155  1
  O  O1486  1  0.597138  0.791429  0.731817  1
  O  O1487  1  0.791454  0.902863  0.547381  1
  O  O1488  1  0.791434  0.708615  0.475705  1
  O  O1489  1  0.597175  0.708615  0.547380  1
  O  O1490  1  0.648370  0.758344  0.494595  1
  O  O1491  1  0.648305  0.741700  0.679032  1
  O  O1492  1  0.648374  0.851616  0.719593  1
  O  O1493  1  0.758255  0.851643  0.679049  1
  O  O1494  1  0.648305  0.758292  0.754029  1
  O  O1495  1  0.648376  0.741744  0.569587  1
  O  O1496  1  0.648373  0.851666  0.529044  1
  O  O1497  1  0.758308  0.851655  0.569587  1
  O  O1498  1  0.851598  0.758331  0.679044  1
  O  O1499  1  0.851647  0.741747  0.494600  1
  O  O1500  1  0.741711  0.851656  0.494606  1
  O  O1501  1  0.851652  0.851669  0.535148  1
  O  O1502  1  0.851563  0.741762  0.754022  1
  O  O1503  1  0.851621  0.851669  0.713480  1
  O  O1504  1  0.741666  0.851644  0.754041  1
  O  O1505  1  0.851670  0.758351  0.569589  1
  O  O1506  1  0.650053  0.944436  0.679680  1
  O  O1507  1  0.650026  0.849963  0.644808  1
  O  O1508  1  0.555541  0.849949  0.679678  1
  O  O1509  1  0.650069  0.944458  0.568954  1
  O  O1510  1  0.650076  0.849949  0.603809  1
  O  O1511  1  0.555543  0.849968  0.568954  1
  O  O1512  1  0.849935  0.944468  0.495234  1
  O  O1513  1  0.944451  0.849975  0.495221  1
  O  O1514  1  0.849945  0.849951  0.460366  1
  O  O1515  1  0.849937  0.944398  0.753410  1
  O  O1516  1  0.849894  0.849891  0.788274  1
  O  O1517  1  0.944423  0.849930  0.753404  1
  O  O1518  1  0.579115  0.688736  0.469062  1
  O  O1519  1  0.579074  0.811343  0.653500  1
  O  O1520  1  0.579113  0.920882  0.693929  1
  O  O1521  1  0.688661  0.920889  0.653504  1
  O  O1522  1  0.579077  0.688688  0.779572  1
  O  O1523  1  0.579131  0.811345  0.595119  1
  O  O1524  1  0.579108  0.920910  0.554708  1
  O  O1525  1  0.688696  0.920897  0.595122  1
  O  O1526  1  0.920842  0.688710  0.653514  1
  O  O1527  1  0.920894  0.811334  0.469049  1
  O  O1528  1  0.811320  0.920900  0.469063  1
  O  O1529  1  0.920891  0.920916  0.509474  1
  O  O1530  1  0.920840  0.811298  0.779574  1
  O  O1531  1  0.920878  0.920871  0.739154  1
  O  O1532  1  0.811308  0.920830  0.779581  1
  O  O1533  1  0.920906  0.688757  0.595132  1
  O  O1534  1  0.612958  0.699560  0.808766  1
  O  O1535  1  0.612977  0.800497  0.624308  1
  O  O1536  1  0.000000  0.699533  0.666014  1
  O  O1537  1  0.699523  0.887015  0.624312  1
  O  O1538  1  0.800454  0.886990  0.439872  1
  O  O1539  1  0.886970  0.800439  0.808767  1
  O  O1540  1  0.886993  0.699570  0.624324  1
  O  O1541  1  0.000000  0.800451  0.767075  1
  O  O1542  1  0.886999  -0.000000  0.735170  1
  O  O1543  1  0.800481  -0.000000  0.767089  1
  O  O1544  1  0.387009  0.300478  0.808771  1
  O  O1545  1  0.300446  0.613029  0.808783  1
  O  O1546  1  0.113010  0.800442  0.808774  1
  O  O1547  1  0.199554  0.886963  0.808768  1
  O  O1548  1  0.386970  0.699561  0.808784  1
  O  O1549  1  0.613055  0.300461  0.808782  1
  O  O1550  1  0.800408  0.113015  0.808782  1
  O  O1551  1  0.699583  0.386991  0.808779  1
  O  O1552  1  0.800454  0.886990  0.808775  1
  Si  Si1553  1  0.121510  0.050263  0.368851  1
  Si  Si1554  1  0.192602  0.121548  0.421332  1
  Si  Si1555  1  0.050212  0.192603  0.395048  1
  Si  Si1556  1  0.050252  0.307433  0.210585  1
  Si  Si1557  1  0.179285  0.250113  0.110856  1
  Si  Si1558  1  0.108138  0.179248  0.163213  1
  Si  Si1559  1  0.250121  0.108141  0.137080  1
  Si  Si1560  1  0.179247  0.249942  0.295320  1
  Si  Si1561  1  0.108096  0.320788  0.347674  1
  Si  Si1562  1  0.179230  0.250132  0.399959  1
  Si  Si1563  1  0.108131  0.179274  0.347610  1
  Si  Si1564  1  0.250108  0.108163  0.373745  1
  Si  Si1565  1  0.179245  0.249905  0.215516  1
  Si  Si1566  1  0.108138  0.320734  0.163144  1
  Si  Si1567  1  0.108145  0.250094  0.137075  1
  Si  Si1568  1  0.250148  0.179274  0.110860  1
  Si  Si1569  1  0.179246  0.108145  0.163209  1
  Si  Si1570  1  0.108114  0.249922  0.321542  1
  Si  Si1571  1  0.250118  0.320770  0.295304  1
  Si  Si1572  1  0.391871  0.250136  0.321537  1
  Si  Si1573  1  0.249867  0.179248  0.295314  1
  Si  Si1574  1  0.320743  0.108198  0.347671  1
  Si  Si1575  1  0.391873  0.249965  0.137106  1
  Si  Si1576  1  0.249930  0.320779  0.110848  1
  Si  Si1577  1  0.320762  0.249948  0.399967  1
  Si  Si1578  1  0.391900  0.320791  0.347602  1
  Si  Si1579  1  0.320771  0.250121  0.215529  1
  Si  Si1580  1  0.391845  0.179308  0.163171  1
  Si  Si1581  1  0.249876  0.108159  0.189286  1
  Si  Si1582  1  0.320795  0.249941  0.110864  1
  Si  Si1583  1  0.391909  0.320811  0.163244  1
  Si  Si1584  1  0.320737  0.250079  0.295315  1
  Si  Si1585  1  0.391862  0.179292  0.347677  1
  Si  Si1586  1  0.249865  0.108142  0.321543  1
  Si  Si1587  1  0.391882  0.249946  0.373740  1
  Si  Si1588  1  0.249894  0.320781  0.399964  1
  Si  Si1589  1  0.391907  0.250155  0.189308  1
  Si  Si1590  1  0.249921  0.179272  0.215512  1
  Si  Si1591  1  0.320752  0.108189  0.163156  1
  Si  Si1592  1  0.108141  0.249891  0.189283  1
  Si  Si1593  1  0.250095  0.320756  0.215517  1
  Si  Si1594  1  0.108087  0.250142  0.373740  1
  Si  Si1595  1  0.250098  0.179300  0.399962  1
  Si  Si1596  1  0.179229  0.108159  0.347617  1
  Si  Si1597  1  0.121559  0.192586  0.089488  1
  Si  Si1598  1  0.050247  0.121512  0.141984  1
  Si  Si1599  1  0.192596  0.050242  0.115776  1
  Si  Si1600  1  0.121518  0.307460  0.273950  1
  Si  Si1601  1  0.121523  0.192586  0.421327  1
  Si  Si1602  1  0.050242  0.121536  0.368838  1
  Si  Si1603  1  0.192608  0.050248  0.395052  1
  Si  Si1604  1  0.121507  0.307417  0.236884  1
  Si  Si1605  1  0.050256  0.192566  0.115769  1
  Si  Si1606  1  0.192629  0.121540  0.089494  1
  Si  Si1607  1  0.121516  0.050241  0.141983  1
  Si  Si1608  1  0.050222  0.307442  0.300234  1
  Si  Si1609  1  0.449771  0.192597  0.300239  1
  Si  Si1610  1  0.307397  0.121524  0.273947  1
  Si  Si1611  1  0.378488  0.050286  0.326453  1
  Si  Si1612  1  0.449783  0.307470  0.115798  1
  Si  Si1613  1  0.378508  0.307453  0.421335  1
  Si  Si1614  1  0.378492  0.192568  0.236888  1
  Si  Si1615  1  0.449747  0.121544  0.184387  1
  Si  Si1616  1  0.307390  0.050251  0.210590  1
  Si  Si1617  1  0.378529  0.307466  0.089498  1
  Si  Si1618  1  0.378480  0.192556  0.273953  1
  Si  Si1619  1  0.449765  0.121548  0.326456  1
  Si  Si1620  1  0.307420  0.050265  0.300242  1
  Si  Si1621  1  0.449792  0.307451  0.395047  1
  Si  Si1622  1  0.449787  0.192590  0.210604  1
  Si  Si1623  1  0.307421  0.121523  0.236881  1
  Si  Si1624  1  0.378471  0.050275  0.184383  1
  Si  Si1625  1  0.121478  0.550221  0.184372  1
  Si  Si1626  1  0.192548  0.621446  0.236894  1
  Si  Si1627  1  0.250032  0.608184  0.321559  1
  Si  Si1628  1  0.250126  0.391875  0.321533  1
  Si  Si1629  1  0.250088  0.608116  0.189302  1
  Si  Si1630  1  0.250087  0.391847  0.189282  1
  Si  Si1631  1  0.179177  0.608131  0.347695  1
  Si  Si1632  1  0.179248  0.391848  0.347661  1
  Si  Si1633  1  0.320752  0.608146  0.163238  1
  Si  Si1634  1  0.320780  0.391892  0.163230  1
  Si  Si1635  1  0.249903  0.391872  0.373728  1
  Si  Si1636  1  0.249845  0.608131  0.373758  1
  Si  Si1637  1  0.249944  0.391860  0.137086  1
  Si  Si1638  1  0.249901  0.608139  0.137100  1
  Si  Si1639  1  0.320781  0.391883  0.347600  1
  Si  Si1640  1  0.320697  0.608165  0.347620  1
  Si  Si1641  1  0.179249  0.391835  0.163139  1
  Si  Si1642  1  0.179240  0.608139  0.163163  1
  Si  Si1643  1  0.050168  0.621476  0.326466  1
  Si  Si1644  1  0.192544  0.550250  0.300255  1
  Si  Si1645  1  0.050206  0.378515  0.326441  1
  Si  Si1646  1  0.192591  0.449778  0.300234  1
  Si  Si1647  1  0.050236  0.621519  0.184387  1
  Si  Si1648  1  0.192529  0.550207  0.210591  1
  Si  Si1649  1  0.050237  0.378475  0.184366  1
  Si  Si1650  1  0.192530  0.449736  0.210578  1
  Si  Si1651  1  0.192575  0.621505  0.273959  1
  Si  Si1652  1  0.121464  0.550227  0.326461  1
  Si  Si1653  1  0.192588  0.378508  0.273943  1
  Si  Si1654  1  0.121506  0.449755  0.326439  1
  Si  Si1655  1  0.307434  0.621530  0.089509  1
  Si  Si1656  1  0.378498  0.550268  0.142008  1
  Si  Si1657  1  0.307465  0.378520  0.089490  1
  Si  Si1658  1  0.378513  0.449798  0.142004  1
  Si  Si1659  1  0.449795  0.378512  0.368834  1
  Si  Si1660  1  0.307426  0.449766  0.395035  1
  Si  Si1661  1  0.449696  0.621529  0.368835  1
  Si  Si1662  1  0.307395  0.550236  0.395054  1
  Si  Si1663  1  0.449792  0.378536  0.142009  1
  Si  Si1664  1  0.307463  0.449777  0.115787  1
  Si  Si1665  1  0.449755  0.621553  0.142010  1
  Si  Si1666  1  0.307432  0.550248  0.115796  1
  Si  Si1667  1  0.307437  0.378498  0.421328  1
  Si  Si1668  1  0.378513  0.449775  0.368831  1
  Si  Si1669  1  0.307414  0.621507  0.421346  1
  Si  Si1670  1  0.378442  0.550245  0.368835  1
  Si  Si1671  1  0.192554  0.378487  0.236877  1
  Si  Si1672  1  0.121499  0.449751  0.184354  1
  Si  Si1673  1  0.050264  0.692573  0.210602  1
  Si  Si1674  1  0.121499  0.949792  0.368841  1
  Si  Si1675  1  0.192547  0.878486  0.421333  1
  Si  Si1676  1  0.179216  0.750109  0.295323  1
  Si  Si1677  1  0.108060  0.679223  0.347691  1
  Si  Si1678  1  0.179246  0.749907  0.110872  1
  Si  Si1679  1  0.108153  0.820758  0.163242  1
  Si  Si1680  1  0.250100  0.891886  0.137091  1
  Si  Si1681  1  0.179279  0.750054  0.215546  1
  Si  Si1682  1  0.108151  0.679259  0.163168  1
  Si  Si1683  1  0.179210  0.749891  0.399975  1
  Si  Si1684  1  0.108143  0.820769  0.347603  1
  Si  Si1685  1  0.250072  0.891860  0.373740  1
  Si  Si1686  1  0.108105  0.750071  0.321554  1
  Si  Si1687  1  0.250079  0.679269  0.295320  1
  Si  Si1688  1  0.108139  0.749911  0.137104  1
  Si  Si1689  1  0.250093  0.820761  0.110868  1
  Si  Si1690  1  0.179246  0.891877  0.163228  1
  Si  Si1691  1  0.391853  0.750136  0.137112  1
  Si  Si1692  1  0.249910  0.679260  0.110876  1
  Si  Si1693  1  0.391831  0.749945  0.321555  1
  Si  Si1694  1  0.249846  0.820797  0.295325  1
  Si  Si1695  1  0.320743  0.891911  0.347680  1
  Si  Si1696  1  0.320760  0.749853  0.215550  1
  Si  Si1697  1  0.391814  0.820757  0.163189  1
  Si  Si1698  1  0.249877  0.891853  0.189303  1
  Si  Si1699  1  0.320713  0.750093  0.399989  1
  Si  Si1700  1  0.391794  0.679280  0.347616  1
  Si  Si1701  1  0.320706  0.749954  0.295330  1
  Si  Si1702  1  0.391836  0.820792  0.347693  1
  Si  Si1703  1  0.249887  0.891932  0.321543  1
  Si  Si1704  1  0.320756  0.750115  0.110877  1
  Si  Si1705  1  0.391844  0.679265  0.163241  1
  Si  Si1706  1  0.391861  0.749888  0.189317  1
  Si  Si1707  1  0.249924  0.820718  0.215523  1
  Si  Si1708  1  0.320733  0.891886  0.163166  1
  Si  Si1709  1  0.391812  0.750126  0.373754  1
  Si  Si1710  1  0.249867  0.679236  0.399988  1
  Si  Si1711  1  0.108117  0.749919  0.373739  1
  Si  Si1712  1  0.250057  0.820745  0.399966  1
  Si  Si1713  1  0.179217  0.891907  0.347603  1
  Si  Si1714  1  0.108189  0.750100  0.189307  1
  Si  Si1715  1  0.250113  0.679186  0.215546  1
  Si  Si1716  1  0.121500  0.692548  0.273965  1
  Si  Si1717  1  0.121520  0.807420  0.089499  1
  Si  Si1718  1  0.050258  0.878492  0.142013  1
  Si  Si1719  1  0.192575  0.949769  0.115781  1
  Si  Si1720  1  0.121516  0.692532  0.236901  1
  Si  Si1721  1  0.121484  0.807432  0.421337  1
  Si  Si1722  1  0.050246  0.878501  0.368832  1
  Si  Si1723  1  0.192578  0.949776  0.395049  1
  Si  Si1724  1  0.050213  0.692532  0.300252  1
  Si  Si1725  1  0.050260  0.807444  0.115797  1
  Si  Si1726  1  0.192578  0.878480  0.089495  1
  Si  Si1727  1  0.121520  0.949770  0.141997  1
  Si  Si1728  1  0.449760  0.692630  0.115804  1
  Si  Si1729  1  0.449717  0.807491  0.300255  1
  Si  Si1730  1  0.307367  0.878517  0.273953  1
  Si  Si1731  1  0.378497  0.949814  0.326462  1
  Si  Si1732  1  0.378470  0.807442  0.236900  1
  Si  Si1733  1  0.449729  0.878524  0.184398  1
  Si  Si1734  1  0.307396  0.949779  0.210599  1
  Si  Si1735  1  0.378463  0.692575  0.421350  1
  Si  Si1736  1  0.378441  0.807475  0.273964  1
  Si  Si1737  1  0.449752  0.878530  0.326475  1
  Si  Si1738  1  0.307454  0.949795  0.300241  1
  Si  Si1739  1  0.378489  0.692591  0.089512  1
  Si  Si1740  1  0.449745  0.807463  0.210609  1
  Si  Si1741  1  0.307407  0.878497  0.236887  1
  Si  Si1742  1  0.378465  0.949802  0.184387  1
  Si  Si1743  1  0.449713  0.692581  0.395050  1
  Si  Si1744  1  0.050214  0.807440  0.395044  1
  Si  Si1745  1  0.621504  0.050266  0.184378  1
  Si  Si1746  1  0.679287  0.250059  0.295325  1
  Si  Si1747  1  0.608169  0.179227  0.347686  1
  Si  Si1748  1  0.750140  0.108104  0.321544  1
  Si  Si1749  1  0.679287  0.249950  0.110875  1
  Si  Si1750  1  0.608162  0.320800  0.163237  1
  Si  Si1751  1  0.679263  0.250109  0.215524  1
  Si  Si1752  1  0.608133  0.179276  0.163158  1
  Si  Si1753  1  0.750116  0.108171  0.189299  1
  Si  Si1754  1  0.679267  0.249905  0.399979  1
  Si  Si1755  1  0.608179  0.320746  0.347612  1
  Si  Si1756  1  0.608167  0.250083  0.321551  1
  Si  Si1757  1  0.750144  0.179216  0.295316  1
  Si  Si1758  1  0.679266  0.108112  0.347674  1
  Si  Si1759  1  0.608167  0.249950  0.137101  1
  Si  Si1760  1  0.750132  0.320806  0.110873  1
  Si  Si1761  1  0.891914  0.250148  0.137079  1
  Si  Si1762  1  0.749944  0.179297  0.110876  1
  Si  Si1763  1  0.820792  0.108185  0.163239  1
  Si  Si1764  1  0.891854  0.249913  0.321540  1
  Si  Si1765  1  0.749913  0.320744  0.295315  1
  Si  Si1766  1  0.820769  0.249942  0.215514  1
  Si  Si1767  1  0.891861  0.320801  0.163145  1
  Si  Si1768  1  0.820722  0.250048  0.399961  1
  Si  Si1769  1  0.891853  0.179247  0.347601  1
  Si  Si1770  1  0.749895  0.108070  0.373749  1
  Si  Si1771  1  0.820771  0.249900  0.295300  1
  Si  Si1772  1  0.891854  0.320769  0.347673  1
  Si  Si1773  1  0.820792  0.250150  0.110853  1
  Si  Si1774  1  0.891890  0.179300  0.163216  1
  Si  Si1775  1  0.749929  0.108191  0.137106  1
  Si  Si1776  1  0.891872  0.249951  0.189281  1
  Si  Si1777  1  0.749905  0.320780  0.215516  1
  Si  Si1778  1  0.891846  0.250104  0.373736  1
  Si  Si1779  1  0.749872  0.179197  0.399971  1
  Si  Si1780  1  0.820768  0.108118  0.347619  1
  Si  Si1781  1  0.608163  0.249891  0.373747  1
  Si  Si1782  1  0.750118  0.320755  0.399976  1
  Si  Si1783  1  0.608148  0.250123  0.189295  1
  Si  Si1784  1  0.750128  0.179271  0.215530  1
  Si  Si1785  1  0.679255  0.108185  0.163165  1
  Si  Si1786  1  0.621534  0.192561  0.273956  1
  Si  Si1787  1  0.550242  0.121525  0.326457  1
  Si  Si1788  1  0.692583  0.050236  0.300241  1
  Si  Si1789  1  0.621542  0.307457  0.089508  1
  Si  Si1790  1  0.621535  0.192583  0.236890  1
  Si  Si1791  1  0.550228  0.121534  0.184379  1
  Si  Si1792  1  0.692567  0.050263  0.210591  1
  Si  Si1793  1  0.621543  0.307434  0.421346  1
  Si  Si1794  1  0.550250  0.192585  0.300244  1
  Si  Si1795  1  0.692596  0.121506  0.273951  1
  Si  Si1796  1  0.621502  0.050244  0.326447  1
  Si  Si1797  1  0.550262  0.307471  0.115797  1
  Si  Si1798  1  0.949779  0.192595  0.115773  1
  Si  Si1799  1  0.807418  0.121524  0.089507  1
  Si  Si1800  1  0.878502  0.050274  0.142008  1
  Si  Si1801  1  0.949745  0.307446  0.300235  1
  Si  Si1802  1  0.878496  0.307486  0.236875  1
  Si  Si1803  1  0.878450  0.192521  0.421327  1
  Si  Si1804  1  0.949765  0.121516  0.368825  1
  Si  Si1805  1  0.807439  0.050196  0.395055  1
  Si  Si1806  1  0.878482  0.307459  0.273940  1
  Si  Si1807  1  0.878482  0.192577  0.089489  1
  Si  Si1808  1  0.949770  0.121547  0.141990  1
  Si  Si1809  1  0.807422  0.050263  0.115801  1
  Si  Si1810  1  0.949774  0.307473  0.210585  1
  Si  Si1811  1  0.949735  0.192569  0.395040  1
  Si  Si1812  1  0.807383  0.121472  0.421344  1
  Si  Si1813  1  0.878512  0.050229  0.368845  1
  Si  Si1814  1  0.550271  0.307421  0.395052  1
  Si  Si1815  1  0.550264  0.192577  0.210597  1
  Si  Si1816  1  0.692594  0.121523  0.236886  1
  Si  Si1817  1  0.621448  0.550230  0.368826  1
  Si  Si1818  1  0.621528  0.449759  0.368838  1
  Si  Si1819  1  0.692520  0.621526  0.421324  1
  Si  Si1820  1  0.750100  0.608201  0.137074  1
  Si  Si1821  1  0.750100  0.391933  0.137095  1
  Si  Si1822  1  0.750007  0.608163  0.373729  1
  Si  Si1823  1  0.750130  0.391881  0.373753  1
  Si  Si1824  1  0.679262  0.608205  0.163217  1
  Si  Si1825  1  0.679245  0.391930  0.163232  1
  Si  Si1826  1  0.820659  0.608192  0.347661  1
  Si  Si1827  1  0.820766  0.391892  0.347679  1
  Si  Si1828  1  0.749906  0.391909  0.189295  1
  Si  Si1829  1  0.749935  0.608197  0.189276  1
  Si  Si1830  1  0.749911  0.391856  0.321543  1
  Si  Si1831  1  0.749805  0.608182  0.321524  1
  Si  Si1832  1  0.820760  0.391911  0.163158  1
  Si  Si1833  1  0.820777  0.608191  0.163134  1
  Si  Si1834  1  0.679276  0.391862  0.347616  1
  Si  Si1835  1  0.679151  0.608142  0.347592  1
  Si  Si1836  1  0.550233  0.621569  0.142010  1
  Si  Si1837  1  0.692553  0.550295  0.115780  1
  Si  Si1838  1  0.550269  0.378535  0.142008  1
  Si  Si1839  1  0.692571  0.449822  0.115789  1
  Si  Si1840  1  0.550173  0.621499  0.368822  1
  Si  Si1841  1  0.692516  0.550243  0.395037  1
  Si  Si1842  1  0.550273  0.378475  0.368838  1
  Si  Si1843  1  0.692583  0.449770  0.395053  1
  Si  Si1844  1  0.692549  0.621559  0.089487  1
  Si  Si1845  1  0.621506  0.550301  0.141999  1
  Si  Si1846  1  0.692593  0.378523  0.089507  1
  Si  Si1847  1  0.621514  0.449831  0.142004  1
  Si  Si1848  1  0.807398  0.621537  0.273941  1
  Si  Si1849  1  0.878398  0.550271  0.326444  1
  Si  Si1850  1  0.807406  0.378501  0.273947  1
  Si  Si1851  1  0.878460  0.449800  0.326441  1
  Si  Si1852  1  0.949760  0.378533  0.184373  1
  Si  Si1853  1  0.807435  0.449813  0.210596  1
  Si  Si1854  1  0.949759  0.621563  0.184380  1
  Si  Si1855  1  0.807445  0.550285  0.210581  1
  Si  Si1856  1  0.949727  0.378521  0.326442  1
  Si  Si1857  1  0.807385  0.449788  0.300232  1
  Si  Si1858  1  0.949689  0.621523  0.326456  1
  Si  Si1859  1  0.807336  0.550261  0.300230  1
  Si  Si1860  1  0.807419  0.378525  0.236881  1
  Si  Si1861  1  0.878499  0.449813  0.184383  1
  Si  Si1862  1  0.807467  0.621547  0.236875  1
  Si  Si1863  1  0.878497  0.550284  0.184364  1
  Si  Si1864  1  0.692603  0.378492  0.421343  1
  Si  Si1865  1  0.807437  0.949791  0.115794  1
  Si  Si1866  1  0.550189  0.692561  0.395034  1
  Si  Si1867  1  0.878466  0.692587  0.273951  1
  Si  Si1868  1  0.878494  0.949758  0.368830  1
  Si  Si1869  1  0.621497  0.949794  0.184377  1
  Si  Si1870  1  0.692566  0.878519  0.236875  1
  Si  Si1871  1  0.550221  0.807475  0.210588  1
  Si  Si1872  1  0.949786  0.692623  0.210592  1
  Si  Si1873  1  0.807408  0.878465  0.421340  1
  Si  Si1874  1  0.878503  0.807454  0.089493  1
  Si  Si1875  1  0.949735  0.807434  0.395037  1
  Si  Si1876  1  0.949781  0.878536  0.141996  1
  Si  Si1877  1  0.679230  0.750150  0.110846  1
  Si  Si1878  1  0.608154  0.679307  0.163226  1
  Si  Si1879  1  0.679192  0.749929  0.295293  1
  Si  Si1880  1  0.608146  0.820738  0.347665  1
  Si  Si1881  1  0.750081  0.891872  0.321537  1
  Si  Si1882  1  0.679175  0.750118  0.399970  1
  Si  Si1883  1  0.608050  0.679249  0.347593  1
  Si  Si1884  1  0.679265  0.749921  0.215522  1
  Si  Si1885  1  0.608136  0.820797  0.163160  1
  Si  Si1886  1  0.750117  0.891884  0.189294  1
  Si  Si1887  1  0.608153  0.750158  0.137089  1
  Si  Si1888  1  0.750085  0.679302  0.110843  1
  Si  Si1889  1  0.608087  0.749898  0.321525  1
  Si  Si1890  1  0.750050  0.820774  0.295303  1
  Si  Si1891  1  0.679231  0.891865  0.347676  1
  Si  Si1892  1  0.891827  0.750135  0.321532  1
  Si  Si1893  1  0.749856  0.679285  0.295294  1
  Si  Si1894  1  0.891885  0.749949  0.137084  1
  Si  Si1895  1  0.749905  0.820786  0.110860  1
  Si  Si1896  1  0.820771  0.891895  0.163227  1
  Si  Si1897  1  0.820695  0.749918  0.399964  1
  Si  Si1898  1  0.891849  0.820788  0.347597  1
  Si  Si1899  1  0.749882  0.891858  0.373744  1
  Si  Si1900  1  0.820791  0.750144  0.215525  1
  Si  Si1901  1  0.891873  0.679306  0.163152  1
  Si  Si1902  1  0.820760  0.749939  0.110859  1
  Si  Si1903  1  0.891883  0.820797  0.163221  1
  Si  Si1904  1  0.749908  0.891882  0.137093  1
  Si  Si1905  1  0.820714  0.750128  0.295303  1
  Si  Si1906  1  0.891780  0.679283  0.347669  1
  Si  Si1907  1  0.891806  0.749938  0.373733  1
  Si  Si1908  1  0.749839  0.820766  0.399979  1
  Si  Si1909  1  0.820731  0.891881  0.347605  1
  Si  Si1910  1  0.891887  0.750153  0.189289  1
  Si  Si1911  1  0.749944  0.679288  0.215512  1
  Si  Si1912  1  0.608143  0.749945  0.189295  1
  Si  Si1913  1  0.750114  0.820776  0.215523  1
  Si  Si1914  1  0.679254  0.891889  0.163161  1
  Si  Si1915  1  0.608085  0.750092  0.373732  1
  Si  Si1916  1  0.750030  0.679270  0.399958  1
  Si  Si1917  1  0.621481  0.692609  0.089492  1
  Si  Si1918  1  0.621454  0.807475  0.273938  1
  Si  Si1919  1  0.550229  0.878500  0.326455  1
  Si  Si1920  1  0.692544  0.949769  0.300237  1
  Si  Si1921  1  0.621449  0.692572  0.421330  1
  Si  Si1922  1  0.621509  0.807459  0.236874  1
  Si  Si1923  1  0.550211  0.878535  0.184376  1
  Si  Si1924  1  0.692569  0.949792  0.210586  1
  Si  Si1925  1  0.550236  0.692625  0.115795  1
  Si  Si1926  1  0.550193  0.807465  0.300234  1
  Si  Si1927  1  0.692530  0.878517  0.273940  1
  Si  Si1928  1  0.621492  0.949774  0.326454  1
  Si  Si1929  1  0.949737  0.692583  0.300243  1
  Si  Si1930  1  0.949783  0.807479  0.115782  1
  Si  Si1931  1  0.807450  0.878519  0.089502  1
  Si  Si1932  1  0.878507  0.949804  0.142004  1
  Si  Si1933  1  0.878464  0.807403  0.421331  1
  Si  Si1934  1  0.949769  0.878494  0.368825  1
  Si  Si1935  1  0.807443  0.949727  0.395046  1
  Si  Si1936  1  0.878522  0.692608  0.236887  1
  Si  Si1937  1  0.121510  0.050263  0.737755  1
  Si  Si1938  1  0.192602  0.121548  0.790235  1
  Si  Si1939  1  0.050212  0.192603  0.763951  1
  Si  Si1940  1  0.050252  0.307433  0.579488  1
  Si  Si1941  1  0.179285  0.250113  0.479759  1
  Si  Si1942  1  0.108138  0.179248  0.532116  1
  Si  Si1943  1  0.250121  0.108141  0.505983  1
  Si  Si1944  1  0.179247  0.249942  0.664223  1
  Si  Si1945  1  0.108096  0.320788  0.716577  1
  Si  Si1946  1  0.179230  0.250132  0.768862  1
  Si  Si1947  1  0.108131  0.179274  0.716513  1
  Si  Si1948  1  0.250108  0.108163  0.742648  1
  Si  Si1949  1  0.179245  0.249905  0.584420  1
  Si  Si1950  1  0.108138  0.320734  0.532047  1
  Si  Si1951  1  0.108145  0.250094  0.505979  1
  Si  Si1952  1  0.250148  0.179274  0.479764  1
  Si  Si1953  1  0.179246  0.108145  0.532112  1
  Si  Si1954  1  0.108114  0.249922  0.690445  1
  Si  Si1955  1  0.250118  0.320770  0.664207  1
  Si  Si1956  1  0.391871  0.250136  0.690440  1
  Si  Si1957  1  0.249867  0.179248  0.664217  1
  Si  Si1958  1  0.320743  0.108198  0.716575  1
  Si  Si1959  1  0.391873  0.249965  0.506010  1
  Si  Si1960  1  0.249930  0.320779  0.479751  1
  Si  Si1961  1  0.320762  0.249948  0.768870  1
  Si  Si1962  1  0.391900  0.320791  0.716505  1
  Si  Si1963  1  0.320771  0.250121  0.584432  1
  Si  Si1964  1  0.391845  0.179308  0.532074  1
  Si  Si1965  1  0.249876  0.108159  0.558189  1
  Si  Si1966  1  0.320795  0.249941  0.479767  1
  Si  Si1967  1  0.391909  0.320811  0.532147  1
  Si  Si1968  1  0.320737  0.250079  0.664218  1
  Si  Si1969  1  0.391862  0.179292  0.716580  1
  Si  Si1970  1  0.249865  0.108142  0.690446  1
  Si  Si1971  1  0.391882  0.249946  0.742644  1
  Si  Si1972  1  0.249894  0.320781  0.768867  1
  Si  Si1973  1  0.391907  0.250155  0.558212  1
  Si  Si1974  1  0.249921  0.179272  0.584415  1
  Si  Si1975  1  0.320752  0.108189  0.532059  1
  Si  Si1976  1  0.108141  0.249891  0.558186  1
  Si  Si1977  1  0.250095  0.320756  0.584420  1
  Si  Si1978  1  0.108087  0.250142  0.742644  1
  Si  Si1979  1  0.250098  0.179300  0.768866  1
  Si  Si1980  1  0.179229  0.108159  0.716520  1
  Si  Si1981  1  0.121559  0.192586  0.458392  1
  Si  Si1982  1  0.050247  0.121512  0.510887  1
  Si  Si1983  1  0.192596  0.050242  0.484679  1
  Si  Si1984  1  0.121518  0.307460  0.642853  1
  Si  Si1985  1  0.121523  0.192586  0.790230  1
  Si  Si1986  1  0.050242  0.121536  0.737741  1
  Si  Si1987  1  0.192608  0.050248  0.763955  1
  Si  Si1988  1  0.121507  0.307417  0.605788  1
  Si  Si1989  1  0.050256  0.192566  0.484672  1
  Si  Si1990  1  0.192629  0.121540  0.458397  1
  Si  Si1991  1  0.121516  0.050241  0.510886  1
  Si  Si1992  1  0.050222  0.307442  0.669137  1
  Si  Si1993  1  0.449771  0.192597  0.669142  1
  Si  Si1994  1  0.307397  0.121524  0.642850  1
  Si  Si1995  1  0.378488  0.050286  0.695356  1
  Si  Si1996  1  0.449783  0.307470  0.484701  1
  Si  Si1997  1  0.378508  0.307453  0.790238  1
  Si  Si1998  1  0.378492  0.192568  0.605791  1
  Si  Si1999  1  0.449747  0.121544  0.553290  1
  Si  Si2000  1  0.307390  0.050251  0.579493  1
  Si  Si2001  1  0.378529  0.307466  0.458401  1
  Si  Si2002  1  0.378480  0.192556  0.642856  1
  Si  Si2003  1  0.449765  0.121548  0.695359  1
  Si  Si2004  1  0.307420  0.050265  0.669146  1
  Si  Si2005  1  0.449792  0.307451  0.763950  1
  Si  Si2006  1  0.449787  0.192590  0.579507  1
  Si  Si2007  1  0.307421  0.121523  0.605784  1
  Si  Si2008  1  0.378471  0.050275  0.553286  1
  Si  Si2009  1  0.121478  0.550221  0.553276  1
  Si  Si2010  1  0.192548  0.621446  0.605797  1
  Si  Si2011  1  0.250032  0.608184  0.690462  1
  Si  Si2012  1  0.250126  0.391875  0.690436  1
  Si  Si2013  1  0.250088  0.608116  0.558206  1
  Si  Si2014  1  0.250087  0.391847  0.558185  1
  Si  Si2015  1  0.179177  0.608131  0.716598  1
  Si  Si2016  1  0.179248  0.391848  0.716564  1
  Si  Si2017  1  0.320752  0.608146  0.532142  1
  Si  Si2018  1  0.320780  0.391892  0.532133  1
  Si  Si2019  1  0.249903  0.391872  0.742631  1
  Si  Si2020  1  0.249845  0.608131  0.742661  1
  Si  Si2021  1  0.249944  0.391860  0.505990  1
  Si  Si2022  1  0.249901  0.608139  0.506003  1
  Si  Si2023  1  0.320781  0.391883  0.716503  1
  Si  Si2024  1  0.320697  0.608165  0.716523  1
  Si  Si2025  1  0.179249  0.391835  0.532042  1
  Si  Si2026  1  0.179240  0.608139  0.532066  1
  Si  Si2027  1  0.050168  0.621476  0.695369  1
  Si  Si2028  1  0.192544  0.550250  0.669158  1
  Si  Si2029  1  0.050206  0.378515  0.695345  1
  Si  Si2030  1  0.192591  0.449778  0.669137  1
  Si  Si2031  1  0.050236  0.621519  0.553290  1
  Si  Si2032  1  0.192529  0.550207  0.579494  1
  Si  Si2033  1  0.050237  0.378475  0.553269  1
  Si  Si2034  1  0.192530  0.449736  0.579481  1
  Si  Si2035  1  0.192575  0.621505  0.642863  1
  Si  Si2036  1  0.121464  0.550227  0.695365  1
  Si  Si2037  1  0.192588  0.378508  0.642846  1
  Si  Si2038  1  0.121506  0.449755  0.695342  1
  Si  Si2039  1  0.307434  0.621530  0.458412  1
  Si  Si2040  1  0.378498  0.550268  0.510911  1
  Si  Si2041  1  0.307465  0.378520  0.458393  1
  Si  Si2042  1  0.378513  0.449798  0.510907  1
  Si  Si2043  1  0.449795  0.378512  0.737738  1
  Si  Si2044  1  0.307426  0.449766  0.763939  1
  Si  Si2045  1  0.449696  0.621529  0.737738  1
  Si  Si2046  1  0.307395  0.550236  0.763957  1
  Si  Si2047  1  0.449792  0.378536  0.510912  1
  Si  Si2048  1  0.307463  0.449777  0.484690  1
  Si  Si2049  1  0.449755  0.621553  0.510913  1
  Si  Si2050  1  0.307432  0.550248  0.484699  1
  Si  Si2051  1  0.307437  0.378498  0.790231  1
  Si  Si2052  1  0.378513  0.449775  0.737734  1
  Si  Si2053  1  0.307414  0.621507  0.790249  1
  Si  Si2054  1  0.378442  0.550245  0.737738  1
  Si  Si2055  1  0.192554  0.378487  0.605780  1
  Si  Si2056  1  0.121499  0.449751  0.553257  1
  Si  Si2057  1  0.050264  0.692573  0.579505  1
  Si  Si2058  1  0.121499  0.949792  0.737745  1
  Si  Si2059  1  0.192547  0.878486  0.790236  1
  Si  Si2060  1  0.179216  0.750109  0.664227  1
  Si  Si2061  1  0.108060  0.679223  0.716594  1
  Si  Si2062  1  0.179246  0.749907  0.479775  1
  Si  Si2063  1  0.108153  0.820758  0.532145  1
  Si  Si2064  1  0.250100  0.891886  0.505994  1
  Si  Si2065  1  0.179279  0.750054  0.584449  1
  Si  Si2066  1  0.108151  0.679259  0.532071  1
  Si  Si2067  1  0.179210  0.749891  0.768878  1
  Si  Si2068  1  0.108143  0.820769  0.716506  1
  Si  Si2069  1  0.250072  0.891860  0.742643  1
  Si  Si2070  1  0.108105  0.750071  0.690457  1
  Si  Si2071  1  0.250079  0.679269  0.664223  1
  Si  Si2072  1  0.108139  0.749911  0.506007  1
  Si  Si2073  1  0.250093  0.820761  0.479771  1
  Si  Si2074  1  0.179246  0.891877  0.532132  1
  Si  Si2075  1  0.391853  0.750136  0.506015  1
  Si  Si2076  1  0.249910  0.679260  0.479779  1
  Si  Si2077  1  0.391831  0.749945  0.690458  1
  Si  Si2078  1  0.249846  0.820797  0.664228  1
  Si  Si2079  1  0.320743  0.891911  0.716583  1
  Si  Si2080  1  0.320760  0.749853  0.584453  1
  Si  Si2081  1  0.391814  0.820757  0.532092  1
  Si  Si2082  1  0.249877  0.891853  0.558206  1
  Si  Si2083  1  0.320713  0.750093  0.768892  1
  Si  Si2084  1  0.391794  0.679280  0.716519  1
  Si  Si2085  1  0.320706  0.749954  0.664233  1
  Si  Si2086  1  0.391836  0.820792  0.716596  1
  Si  Si2087  1  0.249887  0.891932  0.690446  1
  Si  Si2088  1  0.320756  0.750115  0.479780  1
  Si  Si2089  1  0.391844  0.679265  0.532144  1
  Si  Si2090  1  0.391861  0.749888  0.558220  1
  Si  Si2091  1  0.249924  0.820718  0.584426  1
  Si  Si2092  1  0.320733  0.891886  0.532069  1
  Si  Si2093  1  0.391812  0.750126  0.742657  1
  Si  Si2094  1  0.249867  0.679236  0.768891  1
  Si  Si2095  1  0.108117  0.749919  0.742642  1
  Si  Si2096  1  0.250057  0.820745  0.768869  1
  Si  Si2097  1  0.179217  0.891907  0.716506  1
  Si  Si2098  1  0.108189  0.750100  0.558210  1
  Si  Si2099  1  0.250113  0.679186  0.584449  1
  Si  Si2100  1  0.121500  0.692548  0.642868  1
  Si  Si2101  1  0.121520  0.807420  0.458403  1
  Si  Si2102  1  0.050258  0.878492  0.510916  1
  Si  Si2103  1  0.192575  0.949769  0.484684  1
  Si  Si2104  1  0.121516  0.692532  0.605804  1
  Si  Si2105  1  0.121484  0.807432  0.790240  1
  Si  Si2106  1  0.050246  0.878501  0.737735  1
  Si  Si2107  1  0.192578  0.949776  0.763952  1
  Si  Si2108  1  0.050213  0.692532  0.669155  1
  Si  Si2109  1  0.050260  0.807444  0.484700  1
  Si  Si2110  1  0.192578  0.878480  0.458399  1
  Si  Si2111  1  0.121520  0.949770  0.510900  1
  Si  Si2112  1  0.449760  0.692630  0.484707  1
  Si  Si2113  1  0.449717  0.807491  0.669158  1
  Si  Si2114  1  0.307367  0.878517  0.642856  1
  Si  Si2115  1  0.378497  0.949814  0.695365  1
  Si  Si2116  1  0.378470  0.807442  0.605803  1
  Si  Si2117  1  0.449729  0.878524  0.553301  1
  Si  Si2118  1  0.307396  0.949779  0.579502  1
  Si  Si2119  1  0.378463  0.692575  0.790253  1
  Si  Si2120  1  0.378441  0.807475  0.642867  1
  Si  Si2121  1  0.449752  0.878530  0.695379  1
  Si  Si2122  1  0.307454  0.949795  0.669144  1
  Si  Si2123  1  0.378489  0.692591  0.458415  1
  Si  Si2124  1  0.449745  0.807463  0.579512  1
  Si  Si2125  1  0.307407  0.878497  0.605790  1
  Si  Si2126  1  0.378465  0.949802  0.553290  1
  Si  Si2127  1  0.449713  0.692581  0.763953  1
  Si  Si2128  1  0.050214  0.807440  0.763947  1
  Si  Si2129  1  0.621504  0.050266  0.553282  1
  Si  Si2130  1  0.679287  0.250059  0.664228  1
  Si  Si2131  1  0.608169  0.179227  0.716589  1
  Si  Si2132  1  0.750140  0.108104  0.690447  1
  Si  Si2133  1  0.679287  0.249950  0.479778  1
  Si  Si2134  1  0.608162  0.320800  0.532140  1
  Si  Si2135  1  0.679263  0.250109  0.584427  1
  Si  Si2136  1  0.608133  0.179276  0.532061  1
  Si  Si2137  1  0.750116  0.108171  0.558202  1
  Si  Si2138  1  0.679267  0.249905  0.768882  1
  Si  Si2139  1  0.608179  0.320746  0.716516  1
  Si  Si2140  1  0.608167  0.250083  0.690454  1
  Si  Si2141  1  0.750144  0.179216  0.664219  1
  Si  Si2142  1  0.679266  0.108112  0.716577  1
  Si  Si2143  1  0.608167  0.249950  0.506004  1
  Si  Si2144  1  0.750132  0.320806  0.479776  1
  Si  Si2145  1  0.891914  0.250148  0.505982  1
  Si  Si2146  1  0.749944  0.179297  0.479779  1
  Si  Si2147  1  0.820792  0.108185  0.532143  1
  Si  Si2148  1  0.891854  0.249913  0.690443  1
  Si  Si2149  1  0.749913  0.320744  0.664218  1
  Si  Si2150  1  0.820769  0.249942  0.584417  1
  Si  Si2151  1  0.891861  0.320801  0.532048  1
  Si  Si2152  1  0.820722  0.250048  0.768864  1
  Si  Si2153  1  0.891853  0.179247  0.716505  1
  Si  Si2154  1  0.749895  0.108070  0.742652  1
  Si  Si2155  1  0.820771  0.249900  0.664203  1
  Si  Si2156  1  0.891854  0.320769  0.716577  1
  Si  Si2157  1  0.820792  0.250150  0.479756  1
  Si  Si2158  1  0.891890  0.179300  0.532119  1
  Si  Si2159  1  0.749929  0.108191  0.506009  1
  Si  Si2160  1  0.891872  0.249951  0.558184  1
  Si  Si2161  1  0.749905  0.320780  0.584419  1
  Si  Si2162  1  0.891846  0.250104  0.742639  1
  Si  Si2163  1  0.749872  0.179197  0.768874  1
  Si  Si2164  1  0.820768  0.108118  0.716522  1
  Si  Si2165  1  0.608163  0.249891  0.742650  1
  Si  Si2166  1  0.750118  0.320755  0.768879  1
  Si  Si2167  1  0.608148  0.250123  0.558198  1
  Si  Si2168  1  0.750128  0.179271  0.584434  1
  Si  Si2169  1  0.679255  0.108185  0.532068  1
  Si  Si2170  1  0.621534  0.192561  0.642859  1
  Si  Si2171  1  0.550242  0.121525  0.695360  1
  Si  Si2172  1  0.692583  0.050236  0.669144  1
  Si  Si2173  1  0.621542  0.307457  0.458411  1
  Si  Si2174  1  0.621535  0.192583  0.605793  1
  Si  Si2175  1  0.550228  0.121534  0.553282  1
  Si  Si2176  1  0.692567  0.050263  0.579494  1
  Si  Si2177  1  0.621543  0.307434  0.790249  1
  Si  Si2178  1  0.550250  0.192585  0.669147  1
  Si  Si2179  1  0.692596  0.121506  0.642854  1
  Si  Si2180  1  0.621502  0.050244  0.695350  1
  Si  Si2181  1  0.550262  0.307471  0.484701  1
  Si  Si2182  1  0.949779  0.192595  0.484676  1
  Si  Si2183  1  0.807418  0.121524  0.458410  1
  Si  Si2184  1  0.878502  0.050274  0.510911  1
  Si  Si2185  1  0.949745  0.307446  0.669139  1
  Si  Si2186  1  0.878496  0.307486  0.605778  1
  Si  Si2187  1  0.878450  0.192521  0.790231  1
  Si  Si2188  1  0.949765  0.121516  0.737728  1
  Si  Si2189  1  0.807439  0.050196  0.763958  1
  Si  Si2190  1  0.878482  0.307459  0.642843  1
  Si  Si2191  1  0.878482  0.192577  0.458393  1
  Si  Si2192  1  0.949770  0.121547  0.510893  1
  Si  Si2193  1  0.807422  0.050263  0.484704  1
  Si  Si2194  1  0.949774  0.307473  0.579488  1
  Si  Si2195  1  0.949735  0.192569  0.763943  1
  Si  Si2196  1  0.807383  0.121472  0.790247  1
  Si  Si2197  1  0.878512  0.050229  0.737749  1
  Si  Si2198  1  0.550271  0.307421  0.763955  1
  Si  Si2199  1  0.550264  0.192577  0.579500  1
  Si  Si2200  1  0.692594  0.121523  0.605789  1
  Si  Si2201  1  0.621448  0.550230  0.737729  1
  Si  Si2202  1  0.621528  0.449759  0.737741  1
  Si  Si2203  1  0.692520  0.621526  0.790228  1
  Si  Si2204  1  0.750100  0.608201  0.505977  1
  Si  Si2205  1  0.750100  0.391933  0.505998  1
  Si  Si2206  1  0.750007  0.608163  0.742632  1
  Si  Si2207  1  0.750130  0.391881  0.742656  1
  Si  Si2208  1  0.679262  0.608205  0.532120  1
  Si  Si2209  1  0.679245  0.391930  0.532135  1
  Si  Si2210  1  0.820659  0.608192  0.716564  1
  Si  Si2211  1  0.820766  0.391892  0.716582  1
  Si  Si2212  1  0.749906  0.391909  0.558198  1
  Si  Si2213  1  0.749935  0.608197  0.558179  1
  Si  Si2214  1  0.749911  0.391856  0.690446  1
  Si  Si2215  1  0.749805  0.608182  0.690427  1
  Si  Si2216  1  0.820760  0.391911  0.532061  1
  Si  Si2217  1  0.820777  0.608191  0.532038  1
  Si  Si2218  1  0.679276  0.391862  0.716519  1
  Si  Si2219  1  0.679151  0.608142  0.716495  1
  Si  Si2220  1  0.550233  0.621569  0.510913  1
  Si  Si2221  1  0.692553  0.550295  0.484684  1
  Si  Si2222  1  0.550269  0.378535  0.510911  1
  Si  Si2223  1  0.692571  0.449822  0.484692  1
  Si  Si2224  1  0.550173  0.621499  0.737725  1
  Si  Si2225  1  0.692516  0.550243  0.763940  1
  Si  Si2226  1  0.550273  0.378475  0.737741  1
  Si  Si2227  1  0.692583  0.449770  0.763957  1
  Si  Si2228  1  0.692549  0.621559  0.458390  1
  Si  Si2229  1  0.621506  0.550301  0.510902  1
  Si  Si2230  1  0.692593  0.378523  0.458410  1
  Si  Si2231  1  0.621514  0.449831  0.510907  1
  Si  Si2232  1  0.807398  0.621537  0.642844  1
  Si  Si2233  1  0.878398  0.550271  0.695347  1
  Si  Si2234  1  0.807406  0.378501  0.642850  1
  Si  Si2235  1  0.878460  0.449800  0.695344  1
  Si  Si2236  1  0.949760  0.378533  0.553276  1
  Si  Si2237  1  0.807435  0.449813  0.579499  1
  Si  Si2238  1  0.949759  0.621563  0.553283  1
  Si  Si2239  1  0.807445  0.550285  0.579484  1
  Si  Si2240  1  0.949727  0.378521  0.695345  1
  Si  Si2241  1  0.807385  0.449788  0.669135  1
  Si  Si2242  1  0.949689  0.621523  0.695359  1
  Si  Si2243  1  0.807336  0.550261  0.669133  1
  Si  Si2244  1  0.807419  0.378525  0.605784  1
  Si  Si2245  1  0.878499  0.449813  0.553286  1
  Si  Si2246  1  0.807467  0.621547  0.605778  1
  Si  Si2247  1  0.878497  0.550284  0.553267  1
  Si  Si2248  1  0.692603  0.378492  0.790246  1
  Si  Si2249  1  0.807437  0.949791  0.484697  1
  Si  Si2250  1  0.550189  0.692561  0.763937  1
  Si  Si2251  1  0.878466  0.692587  0.642854  1
  Si  Si2252  1  0.878494  0.949758  0.737733  1
  Si  Si2253  1  0.621497  0.949794  0.553280  1
  Si  Si2254  1  0.692566  0.878519  0.605779  1
  Si  Si2255  1  0.550221  0.807475  0.579491  1
  Si  Si2256  1  0.949786  0.692623  0.579495  1
  Si  Si2257  1  0.807408  0.878465  0.790244  1
  Si  Si2258  1  0.878503  0.807454  0.458396  1
  Si  Si2259  1  0.949735  0.807434  0.763940  1
  Si  Si2260  1  0.949781  0.878536  0.510899  1
  Si  Si2261  1  0.679230  0.750150  0.479749  1
  Si  Si2262  1  0.608154  0.679307  0.532129  1
  Si  Si2263  1  0.679192  0.749929  0.664196  1
  Si  Si2264  1  0.608146  0.820738  0.716568  1
  Si  Si2265  1  0.750081  0.891872  0.690440  1
  Si  Si2266  1  0.679175  0.750118  0.768873  1
  Si  Si2267  1  0.608050  0.679249  0.716496  1
  Si  Si2268  1  0.679265  0.749921  0.584425  1
  Si  Si2269  1  0.608136  0.820797  0.532063  1
  Si  Si2270  1  0.750117  0.891884  0.558198  1
  Si  Si2271  1  0.608153  0.750158  0.505993  1
  Si  Si2272  1  0.750085  0.679302  0.479746  1
  Si  Si2273  1  0.608087  0.749898  0.690428  1
  Si  Si2274  1  0.750050  0.820774  0.664207  1
  Si  Si2275  1  0.679231  0.891865  0.716579  1
  Si  Si2276  1  0.891827  0.750135  0.690436  1
  Si  Si2277  1  0.749856  0.679285  0.664197  1
  Si  Si2278  1  0.891885  0.749949  0.505987  1
  Si  Si2279  1  0.749905  0.820786  0.479764  1
  Si  Si2280  1  0.820771  0.891895  0.532130  1
  Si  Si2281  1  0.820695  0.749918  0.768867  1
  Si  Si2282  1  0.891849  0.820788  0.716500  1
  Si  Si2283  1  0.749882  0.891858  0.742647  1
  Si  Si2284  1  0.820791  0.750144  0.584428  1
  Si  Si2285  1  0.891873  0.679306  0.532055  1
  Si  Si2286  1  0.820760  0.749939  0.479762  1
  Si  Si2287  1  0.891883  0.820797  0.532125  1
  Si  Si2288  1  0.749908  0.891882  0.505996  1
  Si  Si2289  1  0.820714  0.750128  0.664206  1
  Si  Si2290  1  0.891780  0.679283  0.716572  1
  Si  Si2291  1  0.891806  0.749938  0.742636  1
  Si  Si2292  1  0.749839  0.820766  0.768883  1
  Si  Si2293  1  0.820731  0.891881  0.716508  1
  Si  Si2294  1  0.891887  0.750153  0.558192  1
  Si  Si2295  1  0.749944  0.679288  0.584415  1
  Si  Si2296  1  0.608143  0.749945  0.558199  1
  Si  Si2297  1  0.750114  0.820776  0.584427  1
  Si  Si2298  1  0.679254  0.891889  0.532064  1
  Si  Si2299  1  0.608085  0.750092  0.742635  1
  Si  Si2300  1  0.750030  0.679270  0.768861  1
  Si  Si2301  1  0.621481  0.692609  0.458396  1
  Si  Si2302  1  0.621454  0.807475  0.642841  1
  Si  Si2303  1  0.550229  0.878500  0.695358  1
  Si  Si2304  1  0.692544  0.949769  0.669140  1
  Si  Si2305  1  0.621449  0.692572  0.790234  1
  Si  Si2306  1  0.621509  0.807459  0.605777  1
  Si  Si2307  1  0.550211  0.878535  0.553279  1
  Si  Si2308  1  0.692569  0.949792  0.579490  1
  Si  Si2309  1  0.550236  0.692625  0.484698  1
  Si  Si2310  1  0.550193  0.807465  0.669137  1
  Si  Si2311  1  0.692530  0.878517  0.642843  1
  Si  Si2312  1  0.621492  0.949774  0.695357  1
  Si  Si2313  1  0.949737  0.692583  0.669147  1
  Si  Si2314  1  0.949783  0.807479  0.484685  1
  Si  Si2315  1  0.807450  0.878519  0.458406  1
  Si  Si2316  1  0.878507  0.949804  0.510907  1
  Si  Si2317  1  0.878464  0.807403  0.790234  1
  Si  Si2318  1  0.949769  0.878494  0.737728  1
  Si  Si2319  1  0.807443  0.949727  0.763949  1
  Si  Si2320  1  0.878522  0.692608  0.605790  1
  H  H2321  1  0.113060  0.199572  0.060133  1
  H  H2322  1  0.199605  0.113068  0.060137  1
  H  H2323  1  0.300476  0.387005  0.060134  1
  H  H2324  1  0.886957  0.199526  0.060131  1
  H  H2325  1  0.699514  0.613051  0.060131  1
  H  H2326  1  0.612958  0.699560  0.060136  1
  H  H2327  1  0.886970  0.800439  0.060137  1
  H  H2328  1  0.387009  0.300478  0.060141  1
  H  H2329  1  0.300446  0.613029  0.060154  1
  H  H2330  1  0.113010  0.800442  0.060144  1
  H  H2331  1  0.199554  0.886963  0.060138  1
  H  H2332  1  0.386970  0.699561  0.060154  1
  H  H2333  1  0.613055  0.300461  0.060152  1
  H  H2334  1  0.800408  0.113015  0.060153  1
  H  H2335  1  0.699583  0.386991  0.060149  1
  H  H2336  1  0.800454  0.886990  0.060145  1
  H  H2337  1  0.113060  0.199572  0.819587  1
  H  H2338  1  0.199605  0.113068  0.819590  1
  H  H2339  1  0.300476  0.387005  0.819587  1
  H  H2340  1  0.886957  0.199526  0.819585  1
  H  H2341  1  0.699514  0.613051  0.819584  1
  H  H2342  1  0.612958  0.699560  0.819590  1
  H  H2343  1  0.886970  0.800439  0.819590  1
  H  H2344  1  0.387009  0.300478  0.819595  1
  H  H2345  1  0.300446  0.613029  0.819607  1
  H  H2346  1  0.113010  0.800442  0.819597  1
  H  H2347  1  0.199554  0.886963  0.819592  1
  H  H2348  1  0.386970  0.699561  0.819608  1
  H  H2349  1  0.613055  0.300461  0.819605  1
  H  H2350  1  0.800408  0.113015  0.819606  1
  H  H2351  1  0.699583  0.386991  0.819603  1
  H  H2352  1  0.800454  0.886990  0.819599  1
