# generated using pymatgen
data_Si24H2O49
_symmetry_space_group_name_H-M   'P 1'
_cell_length_a   28.25841819
_cell_length_b   19.89838588
_cell_length_c   61.20015186
_cell_angle_alpha   90.00000000
_cell_angle_beta   93.20000000
_cell_angle_gamma   90.00000000
_symmetry_Int_Tables_number   1
_chemical_formula_structural   Si24H2O49
_chemical_formula_sum   'Si384 H32 O784'
_cell_volume   34358.9988045
_cell_formula_units_Z   16
loop_
 _symmetry_equiv_pos_site_id
 _symmetry_equiv_pos_as_xyz
  1  'x, y, z'
loop_
 _atom_site_type_symbol
 _atom_site_label
 _atom_site_symmetry_multiplicity
 _atom_site_fract_x
 _atom_site_fract_y
 _atom_site_fract_z
 _atom_site_occupancy
  O  O1  1  0.394429  0.404978  0.097169  1
  O  O2  1  0.395299  0.193842  0.096533  1
  O  O3  1  0.394432  0.594978  0.097171  1
  O  O4  1  0.395301  0.806122  0.096535  1
  O  O5  1  0.894432  0.094995  0.097170  1
  O  O6  1  0.895300  0.306131  0.096533  1
  O  O7  1  0.894434  0.904992  0.097172  1
  O  O8  1  0.895301  0.693848  0.096535  1
  O  O9  1  0.044955  0.100020  0.389004  1
  O  O10  1  0.096629  0.201108  0.398336  1
  O  O11  1  0.131468  0.097299  0.380493  1
  O  O12  1  0.105660  0.094992  0.102713  1
  O  O13  1  0.131779  0.193034  0.304799  1
  O  O14  1  0.126795  0.249673  0.341834  1
  O  O15  1  0.126913  0.122945  0.339978  1
  O  O16  1  0.053286  0.189429  0.327383  1
  O  O17  1  0.045867  0.088786  0.132554  1
  O  O18  1  0.130005  0.123802  0.143016  1
  O  O19  1  0.206445  0.094316  0.357663  1
  O  O20  1  0.293645  0.405652  0.160453  1
  O  O21  1  0.129929  0.302526  0.379807  1
  O  O22  1  0.104790  0.306134  0.103349  1
  O  O23  1  0.044688  0.300722  0.388729  1
  O  O24  1  0.200668  0.199694  0.158011  1
  O  O25  1  0.299423  0.300280  0.360104  1
  O  O26  1  0.295953  0.202370  0.161194  1
  O  O27  1  0.204138  0.297602  0.356920  1
  O  O28  1  0.247253  0.198528  0.194391  1
  O  O29  1  0.252839  0.301436  0.323723  1
  O  O30  1  0.246298  0.302894  0.171693  1
  O  O31  1  0.253793  0.197076  0.346424  1
  O  O32  1  0.046238  0.302503  0.134599  1
  O  O33  1  0.005343  0.248796  0.355279  1
  O  O34  1  0.125824  0.250162  0.140263  1
  O  O35  1  0.123505  0.195582  0.177687  1
  O  O36  1  0.119276  0.376312  0.139361  1
  O  O37  1  0.181881  0.499987  0.287487  1
  O  O38  1  0.130136  0.410284  0.303935  1
  O  O39  1  0.052950  0.411157  0.327241  1
  O  O40  1  0.133682  0.375243  0.344457  1
  O  O41  1  0.123888  0.407292  0.179409  1
  O  O42  1  0.138187  0.499989  0.152345  1
  O  O43  1  0.199325  0.405476  0.158978  1
  O  O44  1  0.300766  0.094495  0.359138  1
  O  O45  1  0.246982  0.406971  0.194710  1
  O  O46  1  0.253109  0.093001  0.323405  1
  O  O47  1  0.168987  0.299692  0.239682  1
  O  O48  1  0.331104  0.200275  0.278433  1
  O  O49  1  0.211093  0.406598  0.231539  1
  O  O50  1  0.289000  0.093368  0.286577  1
  O  O51  1  0.153544  0.403152  0.262598  1
  O  O52  1  0.122451  0.392672  0.220784  1
  O  O53  1  0.041980  0.403066  0.194976  1
  O  O54  1  0.095038  0.299895  0.194904  1
  O  O55  1  0.201074  0.123961  0.290635  1
  O  O56  1  0.299019  0.376008  0.227480  1
  O  O57  1  0.268094  0.499983  0.221727  1
  O  O58  1  0.042733  0.197418  0.194160  1
  O  O59  1  0.212786  0.376376  0.293899  1
  O  O60  1  0.287307  0.123592  0.224216  1
  O  O61  1  0.287311  0.304679  0.286203  1
  O  O62  1  0.212780  0.195289  0.231911  1
  O  O63  1  0.206728  0.249348  0.292356  1
  O  O64  1  0.293362  0.250621  0.225757  1
  O  O65  1  0.154271  0.197878  0.262759  1
  O  O66  1  0.123709  0.206504  0.220111  1
  O  O67  1  0.003607  0.375726  0.358624  1
  O  O68  1  -0.000000  0.122692  0.352764  1
  O  O69  1  -0.000000  0.499990  0.343613  1
  O  O70  1  0.116561  0.499989  0.332220  1
  O  O71  1  0.044951  0.899961  0.389006  1
  O  O72  1  0.096628  0.798874  0.398337  1
  O  O73  1  0.131465  0.902681  0.380493  1
  O  O74  1  0.105660  0.904990  0.102713  1
  O  O75  1  0.131775  0.806944  0.304799  1
  O  O76  1  0.126791  0.750307  0.341834  1
  O  O77  1  0.126909  0.877033  0.339978  1
  O  O78  1  0.053281  0.810550  0.327383  1
  O  O79  1  0.045872  0.911194  0.132556  1
  O  O80  1  0.109184  0.000000  0.130912  1
  O  O81  1  0.130010  0.876180  0.143016  1
  O  O82  1  0.293649  0.594316  0.160454  1
  O  O83  1  0.206442  0.905657  0.357663  1
  O  O84  1  0.144433  0.000000  0.353864  1
  O  O85  1  0.129923  0.697453  0.379807  1
  O  O86  1  0.104789  0.693848  0.103349  1
  O  O87  1  0.044683  0.699261  0.388730  1
  O  O88  1  0.299418  0.699687  0.360106  1
  O  O89  1  0.200674  0.800285  0.158012  1
  O  O90  1  0.204133  0.702377  0.356921  1
  O  O91  1  0.295959  0.797591  0.161196  1
  O  O92  1  0.252836  0.698536  0.323725  1
  O  O93  1  0.247258  0.801438  0.194393  1
  O  O94  1  0.253793  0.802896  0.346425  1
  O  O95  1  0.246298  0.697075  0.171693  1
  O  O96  1  0.046243  0.697482  0.134601  1
  O  O97  1  0.005340  0.751185  0.355280  1
  O  O98  1  0.125830  0.749820  0.140263  1
  O  O99  1  0.123510  0.804400  0.177687  1
  O  O100  1  0.119280  0.623669  0.139361  1
  O  O101  1  0.130134  0.589691  0.303935  1
  O  O102  1  0.052949  0.588822  0.327241  1
  O  O103  1  0.133679  0.624737  0.344457  1
  O  O104  1  0.123890  0.592688  0.179409  1
  O  O105  1  0.300763  0.905477  0.359139  1
  O  O106  1  0.199328  0.594495  0.158978  1
  O  O107  1  0.253108  0.906971  0.323407  1
  O  O108  1  0.246984  0.592999  0.194711  1
  O  O109  1  0.331105  0.799692  0.278434  1
  O  O110  1  0.168989  0.700280  0.239683  1
  O  O111  1  0.288999  0.906600  0.286578  1
  O  O112  1  0.211094  0.593371  0.231539  1
  O  O113  1  0.153543  0.596820  0.262597  1
  O  O114  1  0.122452  0.607305  0.220784  1
  O  O115  1  0.041983  0.596917  0.194976  1
  O  O116  1  0.095042  0.700087  0.194904  1
  O  O117  1  0.299020  0.623957  0.227481  1
  O  O118  1  0.201073  0.876012  0.290636  1
  O  O119  1  0.231998  -0.000000  0.296390  1
  O  O120  1  0.042739  0.802565  0.194161  1
  O  O121  1  0.287312  0.876372  0.224218  1
  O  O122  1  0.212783  0.623597  0.293900  1
  O  O123  1  0.212786  0.804678  0.231913  1
  O  O124  1  0.287307  0.695295  0.286204  1
  O  O125  1  0.293368  0.749343  0.225759  1
  O  O126  1  0.206723  0.750625  0.292358  1
  O  O127  1  0.154272  0.802095  0.262759  1
  O  O128  1  0.123716  0.793473  0.220110  1
  O  O129  1  0.318213  0.000000  0.230629  1
  O  O130  1  0.003607  0.624254  0.358625  1
  O  O131  1  0.000000  0.877289  0.352764  1
  O  O132  1  0.006111  0.000000  0.368854  1
  O  O133  1  0.455135  0.399948  0.129109  1
  O  O134  1  0.544955  0.399948  0.389003  1
  O  O135  1  0.403451  0.298865  0.119779  1
  O  O136  1  0.596638  0.298866  0.398333  1
  O  O137  1  0.368622  0.402681  0.137622  1
  O  O138  1  0.631467  0.402680  0.380490  1
  O  O139  1  0.394429  0.404978  0.415401  1
  O  O140  1  0.605660  0.404981  0.102710  1
  O  O141  1  0.368312  0.306931  0.213315  1
  O  O142  1  0.631779  0.306935  0.304797  1
  O  O143  1  0.373297  0.250295  0.176279  1
  O  O144  1  0.626794  0.250298  0.341832  1
  O  O145  1  0.373178  0.377022  0.178136  1
  O  O146  1  0.626913  0.377025  0.339975  1
  O  O147  1  0.446806  0.310540  0.190731  1
  O  O148  1  0.553285  0.310543  0.327381  1
  O  O149  1  0.454224  0.411185  0.385560  1
  O  O150  1  0.545865  0.411185  0.132552  1
  O  O151  1  0.370088  0.376171  0.375097  1
  O  O152  1  0.630002  0.376171  0.143014  1
  O  O153  1  0.355656  0.499981  0.164253  1
  O  O154  1  0.370162  0.197437  0.138308  1
  O  O155  1  0.629929  0.197441  0.379804  1
  O  O156  1  0.395299  0.193842  0.414765  1
  O  O157  1  0.604792  0.193842  0.103347  1
  O  O158  1  0.455403  0.199257  0.129384  1
  O  O159  1  0.544689  0.199256  0.388727  1
  O  O160  1  0.453854  0.197474  0.383515  1
  O  O161  1  0.546238  0.197473  0.134597  1
  O  O162  1  0.505343  0.251178  0.355278  1
  O  O163  1  0.494749  0.251176  0.162834  1
  O  O164  1  0.503610  0.124247  0.358624  1
  O  O165  1  0.496481  0.124245  0.159487  1
  O  O166  1  0.374267  0.249812  0.377851  1
  O  O167  1  0.625826  0.249811  0.140261  1
  O  O168  1  0.376585  0.304390  0.340426  1
  O  O169  1  0.623505  0.304391  0.177685  1
  O  O170  1  0.380817  0.123662  0.378754  1
  O  O171  1  0.619276  0.123661  0.139358  1
  O  O172  1  0.500944  0.377282  0.352762  1
  O  O173  1  0.499145  0.377280  0.165349  1
  O  O174  1  0.369957  0.089686  0.214180  1
  O  O175  1  0.630134  0.089687  0.303932  1
  O  O176  1  0.447140  0.088815  0.190872  1
  O  O177  1  0.552950  0.088815  0.327240  1
  O  O178  1  0.366406  0.124725  0.173658  1
  O  O179  1  0.633683  0.124728  0.344454  1
  O  O180  1  0.376203  0.092680  0.338706  1
  O  O181  1  0.623887  0.092680  0.179406  1
  O  O182  1  0.346549  0.096817  0.255518  1
  O  O183  1  0.653541  0.096818  0.262594  1
  O  O184  1  0.377642  0.107298  0.297331  1
  O  O185  1  0.622447  0.107299  0.220781  1
  O  O186  1  0.458111  0.096904  0.323140  1
  O  O187  1  0.541979  0.096906  0.194971  1
  O  O188  1  0.405055  0.200077  0.323211  1
  O  O189  1  0.595036  0.200078  0.194901  1
  O  O190  1  0.457357  0.302557  0.323953  1
  O  O191  1  0.542734  0.302557  0.194158  1
  O  O192  1  0.345821  0.302087  0.255355  1
  O  O193  1  0.654270  0.302091  0.262757  1
  O  O194  1  0.376382  0.293464  0.298003  1
  O  O195  1  0.623708  0.293467  0.220108  1
  O  O196  1  0.609181  0.499981  0.130910  1
  O  O197  1  0.390909  0.499981  0.387202  1
  O  O198  1  0.644437  0.499982  0.353860  1
  O  O199  1  0.493978  0.499981  0.149258  1
  O  O200  1  0.506112  0.499982  0.368854  1
  O  O201  1  0.544951  0.600016  0.389004  1
  O  O202  1  0.455139  0.600016  0.129110  1
  O  O203  1  0.596639  0.701096  0.398333  1
  O  O204  1  0.403452  0.701095  0.119780  1
  O  O205  1  0.631464  0.597280  0.380490  1
  O  O206  1  0.368626  0.597282  0.137624  1
  O  O207  1  0.605659  0.594982  0.102711  1
  O  O208  1  0.394432  0.594978  0.415404  1
  O  O209  1  0.631775  0.693030  0.304797  1
  O  O210  1  0.368318  0.693027  0.213317  1
  O  O211  1  0.626790  0.749666  0.341833  1
  O  O212  1  0.373302  0.749663  0.176282  1
  O  O213  1  0.626909  0.622939  0.339975  1
  O  O214  1  0.373183  0.622936  0.178139  1
  O  O215  1  0.553281  0.689421  0.327381  1
  O  O216  1  0.446811  0.689418  0.190733  1
  O  O217  1  0.545870  0.588779  0.132554  1
  O  O218  1  0.454221  0.588779  0.385560  1
  O  O219  1  0.630006  0.623791  0.143015  1
  O  O220  1  0.370084  0.623794  0.375100  1
  O  O221  1  0.629923  0.802526  0.379804  1
  O  O222  1  0.370169  0.802522  0.138310  1
  O  O223  1  0.604791  0.806119  0.103347  1
  O  O224  1  0.395301  0.806122  0.414767  1
  O  O225  1  0.544684  0.800701  0.388729  1
  O  O226  1  0.455408  0.800698  0.129385  1
  O  O227  1  0.546243  0.802486  0.134599  1
  O  O228  1  0.453850  0.802491  0.383515  1
  O  O229  1  0.494752  0.748783  0.162836  1
  O  O230  1  0.505339  0.748786  0.355278  1
  O  O231  1  0.496482  0.875714  0.159488  1
  O  O232  1  0.503610  0.875716  0.358625  1
  O  O233  1  0.625831  0.750150  0.140261  1
  O  O234  1  0.374262  0.750153  0.377854  1
  O  O235  1  0.623510  0.695571  0.177685  1
  O  O236  1  0.376581  0.695573  0.340430  1
  O  O237  1  0.619280  0.876301  0.139357  1
  O  O238  1  0.380812  0.876304  0.378757  1
  O  O239  1  0.499148  0.622679  0.165351  1
  O  O240  1  0.500943  0.622682  0.352763  1
  O  O241  1  0.630131  0.910281  0.303931  1
  O  O242  1  0.369961  0.910280  0.214182  1
  O  O243  1  0.552949  0.911148  0.327240  1
  O  O244  1  0.447144  0.911148  0.190873  1
  O  O245  1  0.633681  0.875235  0.344453  1
  O  O246  1  0.366411  0.875232  0.173661  1
  O  O247  1  0.616561  0.000000  0.332217  1
  O  O248  1  0.383531  0.000000  0.185896  1
  O  O249  1  0.623890  0.907283  0.179405  1
  O  O250  1  0.376201  0.907283  0.338709  1
  O  O251  1  0.638187  -0.000000  0.152341  1
  O  O252  1  0.361905  0.000000  0.365772  1
  O  O253  1  0.653541  0.903154  0.262593  1
  O  O254  1  0.346551  0.903153  0.255520  1
  O  O255  1  0.622450  0.892668  0.220780  1
  O  O256  1  0.377641  0.892667  0.297334  1
  O  O257  1  0.541982  0.903057  0.194971  1
  O  O258  1  0.458110  0.903056  0.323142  1
  O  O259  1  0.595040  0.799885  0.194901  1
  O  O260  1  0.405051  0.799885  0.323213  1
  O  O261  1  0.499960  0.000000  0.174499  1
  O  O262  1  0.500131  0.000000  0.343614  1
  O  O263  1  0.542740  0.697404  0.194159  1
  O  O264  1  0.457352  0.697405  0.323955  1
  O  O265  1  0.654271  0.697880  0.262757  1
  O  O266  1  0.345820  0.697876  0.255358  1
  O  O267  1  0.623715  0.706500  0.220109  1
  O  O268  1  0.376376  0.706499  0.298006  1
  O  O269  1  0.955137  0.100018  0.129110  1
  O  O270  1  0.903465  0.201108  0.119779  1
  O  O271  1  0.868624  0.097300  0.137622  1
  O  O272  1  0.894432  0.094995  0.415402  1
  O  O273  1  0.868311  0.193037  0.213315  1
  O  O274  1  0.873296  0.249676  0.176280  1
  O  O275  1  0.873178  0.122949  0.178136  1
  O  O276  1  0.946805  0.189432  0.190732  1
  O  O277  1  0.954225  0.088786  0.385561  1
  O  O278  1  0.870087  0.123800  0.375098  1
  O  O279  1  0.793646  0.094321  0.160451  1
  O  O280  1  0.706446  0.405650  0.357661  1
  O  O281  1  0.870162  0.302527  0.138308  1
  O  O282  1  0.895300  0.306131  0.414765  1
  O  O283  1  0.955403  0.300728  0.129386  1
  O  O284  1  0.799423  0.199689  0.360102  1
  O  O285  1  0.700668  0.300284  0.158009  1
  O  O286  1  0.704138  0.202371  0.356918  1
  O  O287  1  0.795954  0.297604  0.161194  1
  O  O288  1  0.752838  0.198529  0.323721  1
  O  O289  1  0.747252  0.301441  0.194390  1
  O  O290  1  0.753796  0.302893  0.346421  1
  O  O291  1  0.746296  0.197080  0.171689  1
  O  O292  1  0.953852  0.302498  0.383515  1
  O  O293  1  0.994748  0.248798  0.162835  1
  O  O294  1  0.874265  0.250160  0.377851  1
  O  O295  1  0.876587  0.195580  0.340427  1
  O  O296  1  0.880815  0.376310  0.378754  1
  O  O297  1  0.869954  0.410286  0.214179  1
  O  O298  1  0.947140  0.411158  0.190874  1
  O  O299  1  0.866409  0.375246  0.173657  1
  O  O300  1  0.876204  0.407293  0.338705  1
  O  O301  1  0.800766  0.405475  0.359136  1
  O  O302  1  0.699325  0.094496  0.158975  1
  O  O303  1  0.753109  0.406970  0.323403  1
  O  O304  1  0.746982  0.093004  0.194708  1
  O  O305  1  0.831105  0.299694  0.278432  1
  O  O306  1  0.668984  0.200277  0.239679  1
  O  O307  1  0.789000  0.406602  0.286575  1
  O  O308  1  0.711090  0.093371  0.231535  1
  O  O309  1  0.846548  0.403153  0.255517  1
  O  O310  1  0.877642  0.392673  0.297330  1
  O  O311  1  0.958111  0.403065  0.323139  1
  O  O312  1  0.905053  0.299894  0.323211  1
  O  O313  1  0.799016  0.123964  0.227479  1
  O  O314  1  0.701074  0.376011  0.290633  1
  O  O315  1  0.818210  0.499989  0.230629  1
  O  O316  1  0.957358  0.197417  0.323954  1
  O  O317  1  0.787305  0.376379  0.224215  1
  O  O318  1  0.712784  0.123595  0.293895  1
  O  O319  1  0.712779  0.304680  0.231910  1
  O  O320  1  0.787312  0.195291  0.286202  1
  O  O321  1  0.793363  0.249351  0.225757  1
  O  O322  1  0.706729  0.250624  0.292354  1
  O  O323  1  0.845820  0.197881  0.255355  1
  O  O324  1  0.876382  0.206505  0.298004  1
  O  O325  1  0.996484  0.375729  0.159492  1
  O  O326  1  0.731998  0.499986  0.296388  1
  O  O327  1  0.861904  0.499988  0.365771  1
  O  O328  1  -0.000000  0.122694  0.165351  1
  O  O329  1  0.883531  0.499992  0.185895  1
  O  O330  1  -0.000000  0.499992  0.174504  1
  O  O331  1  0.955142  0.899959  0.129112  1
  O  O332  1  0.903464  0.798875  0.119779  1
  O  O333  1  0.868629  0.902684  0.137624  1
  O  O334  1  0.894434  0.904992  0.415404  1
  O  O335  1  0.868316  0.806948  0.213317  1
  O  O336  1  0.873301  0.750311  0.176282  1
  O  O337  1  0.873182  0.877037  0.178138  1
  O  O338  1  0.946810  0.810553  0.190734  1
  O  O339  1  0.954221  0.911193  0.385560  1
  O  O340  1  0.870084  0.876179  0.375101  1
  O  O341  1  0.706442  0.594320  0.357661  1
  O  O342  1  0.793650  0.905655  0.160452  1
  O  O343  1  0.870168  0.697455  0.138310  1
  O  O344  1  0.895301  0.693848  0.414767  1
  O  O345  1  0.955408  0.699263  0.129387  1
  O  O346  1  0.700674  0.699682  0.158010  1
  O  O347  1  0.799418  0.800288  0.360105  1
  O  O348  1  0.795959  0.702378  0.161195  1
  O  O349  1  0.704133  0.797594  0.356919  1
  O  O350  1  0.747257  0.698537  0.194392  1
  O  O351  1  0.752834  0.801442  0.323723  1
  O  O352  1  0.746297  0.802896  0.171690  1
  O  O353  1  0.753795  0.697078  0.346422  1
  O  O354  1  0.953848  0.697480  0.383515  1
  O  O355  1  0.994751  0.751187  0.162837  1
  O  O356  1  0.874260  0.749819  0.377854  1
  O  O357  1  0.876582  0.804400  0.340430  1
  O  O358  1  0.880810  0.623668  0.378756  1
  O  O359  1  0.869958  0.589692  0.214182  1
  O  O360  1  0.947143  0.588824  0.190876  1
  O  O361  1  0.866413  0.624740  0.173660  1
  O  O362  1  -0.000000  0.877290  0.165353  1
  O  O363  1  0.876202  0.592688  0.338708  1
  O  O364  1  0.699329  0.905478  0.158975  1
  O  O365  1  0.800763  0.594496  0.359138  1
  O  O366  1  0.746984  0.906970  0.194708  1
  O  O367  1  0.753107  0.593001  0.323404  1
  O  O368  1  0.668987  0.799694  0.239680  1
  O  O369  1  0.831105  0.700282  0.278433  1
  O  O370  1  0.711091  0.906603  0.231536  1
  O  O371  1  0.788999  0.593375  0.286577  1
  O  O372  1  0.846549  0.596820  0.255519  1
  O  O373  1  0.877640  0.607306  0.297333  1
  O  O374  1  0.958109  0.596917  0.323141  1
  O  O375  1  0.905050  0.700087  0.323213  1
  O  O376  1  0.701072  0.623960  0.290634  1
  O  O377  1  0.799018  0.876016  0.227480  1
  O  O378  1  0.957353  0.802565  0.323956  1
  O  O379  1  0.712781  0.876375  0.293896  1
  O  O380  1  0.787310  0.623600  0.224217  1
  O  O381  1  0.787307  0.804679  0.286203  1
  O  O382  1  0.712785  0.695296  0.231911  1
  O  O383  1  0.706725  0.749346  0.292356  1
  O  O384  1  0.793368  0.750629  0.225758  1
  O  O385  1  0.845820  0.802099  0.255358  1
  O  O386  1  0.876377  0.793474  0.298006  1
  O  O387  1  0.681879  -0.000000  0.287484  1
  O  O388  1  0.996485  0.624256  0.159492  1
  O  O389  1  0.768092  0.000000  0.221723  1
  O  O390  1  0.890909  0.000000  0.387203  1
  O  O391  1  0.855657  0.000000  0.164251  1
  O  O392  1  0.993982  0.000000  0.149262  1
  O  O393  1  0.044955  0.100020  0.707237  1
  O  O394  1  0.096629  0.201108  0.716569  1
  O  O395  1  0.131468  0.097299  0.698725  1
  O  O396  1  0.105660  0.094992  0.420945  1
  O  O397  1  0.131779  0.193034  0.623032  1
  O  O398  1  0.126795  0.249673  0.660067  1
  O  O399  1  0.126913  0.122945  0.658210  1
  O  O400  1  0.053286  0.189429  0.645615  1
  O  O401  1  0.045867  0.088786  0.450787  1
  O  O402  1  0.130005  0.123802  0.461248  1
  O  O403  1  0.206445  0.094316  0.675895  1
  O  O404  1  0.293645  0.405652  0.478685  1
  O  O405  1  0.129929  0.302526  0.698039  1
  O  O406  1  0.104790  0.306134  0.421581  1
  O  O407  1  0.044688  0.300722  0.706961  1
  O  O408  1  0.200668  0.199694  0.476243  1
  O  O409  1  0.299423  0.300280  0.678336  1
  O  O410  1  0.295953  0.202370  0.479426  1
  O  O411  1  0.204138  0.297602  0.675152  1
  O  O412  1  0.247253  0.198528  0.512623  1
  O  O413  1  0.252839  0.301436  0.641955  1
  O  O414  1  0.246298  0.302894  0.489925  1
  O  O415  1  0.253793  0.197076  0.664656  1
  O  O416  1  0.046238  0.302503  0.452831  1
  O  O417  1  0.005343  0.248796  0.673511  1
  O  O418  1  0.125824  0.250162  0.458495  1
  O  O419  1  0.123505  0.195582  0.495919  1
  O  O420  1  0.119276  0.376312  0.457593  1
  O  O421  1  0.181881  0.499987  0.605719  1
  O  O422  1  0.130136  0.410284  0.622168  1
  O  O423  1  0.052950  0.411157  0.645473  1
  O  O424  1  0.133682  0.375243  0.662690  1
  O  O425  1  0.123888  0.407292  0.497642  1
  O  O426  1  0.138187  0.499989  0.470577  1
  O  O427  1  0.199325  0.405476  0.477210  1
  O  O428  1  0.300766  0.094495  0.677370  1
  O  O429  1  0.246982  0.406971  0.512943  1
  O  O430  1  0.253109  0.093001  0.641638  1
  O  O431  1  0.168987  0.299692  0.557915  1
  O  O432  1  0.331104  0.200275  0.596665  1
  O  O433  1  0.211093  0.406598  0.549771  1
  O  O434  1  0.289000  0.093368  0.604809  1
  O  O435  1  0.153544  0.403152  0.580830  1
  O  O436  1  0.122451  0.392672  0.539017  1
  O  O437  1  0.041980  0.403066  0.513209  1
  O  O438  1  0.095038  0.299895  0.513136  1
  O  O439  1  0.201074  0.123961  0.608867  1
  O  O440  1  0.299019  0.376008  0.545712  1
  O  O441  1  0.268094  0.499983  0.539959  1
  O  O442  1  0.042733  0.197418  0.512392  1
  O  O443  1  0.212786  0.376376  0.612132  1
  O  O444  1  0.287307  0.123592  0.542449  1
  O  O445  1  0.287311  0.304679  0.604435  1
  O  O446  1  0.212780  0.195289  0.550143  1
  O  O447  1  0.206728  0.249348  0.610588  1
  O  O448  1  0.293362  0.250621  0.543990  1
  O  O449  1  0.154271  0.197878  0.580991  1
  O  O450  1  0.123709  0.206504  0.538343  1
  O  O451  1  0.003607  0.375726  0.676856  1
  O  O452  1  -0.000000  0.122692  0.670996  1
  O  O453  1  0.000000  0.499990  0.661845  1
  O  O454  1  0.116561  0.499989  0.650452  1
  O  O455  1  0.044951  0.899961  0.707238  1
  O  O456  1  0.096628  0.798874  0.716569  1
  O  O457  1  0.131465  0.902681  0.698725  1
  O  O458  1  0.105660  0.904990  0.420945  1
  O  O459  1  0.131775  0.806944  0.623032  1
  O  O460  1  0.126791  0.750307  0.660067  1
  O  O461  1  0.126909  0.877033  0.658210  1
  O  O462  1  0.053281  0.810550  0.645615  1
  O  O463  1  0.045872  0.911194  0.450789  1
  O  O464  1  0.109184  0.000000  0.449145  1
  O  O465  1  0.130010  0.876180  0.461248  1
  O  O466  1  0.293649  0.594316  0.478686  1
  O  O467  1  0.206442  0.905657  0.675895  1
  O  O468  1  0.144433  -0.000000  0.672097  1
  O  O469  1  0.129923  0.697453  0.698039  1
  O  O470  1  0.104789  0.693848  0.421582  1
  O  O471  1  0.044683  0.699261  0.706963  1
  O  O472  1  0.299418  0.699687  0.678338  1
  O  O473  1  0.200674  0.800285  0.476244  1
  O  O474  1  0.204133  0.702377  0.675153  1
  O  O475  1  0.295959  0.797591  0.479428  1
  O  O476  1  0.252836  0.698536  0.641957  1
  O  O477  1  0.247258  0.801438  0.512625  1
  O  O478  1  0.253793  0.802896  0.664658  1
  O  O479  1  0.246298  0.697075  0.489926  1
  O  O480  1  0.046243  0.697482  0.452834  1
  O  O481  1  0.005340  0.751185  0.673512  1
  O  O482  1  0.125830  0.749820  0.458495  1
  O  O483  1  0.123510  0.804400  0.495919  1
  O  O484  1  0.119280  0.623669  0.457593  1
  O  O485  1  0.130134  0.589691  0.622167  1
  O  O486  1  0.052949  0.588822  0.645473  1
  O  O487  1  0.133679  0.624737  0.662689  1
  O  O488  1  0.123890  0.592688  0.497641  1
  O  O489  1  0.300763  0.905477  0.677372  1
  O  O490  1  0.199328  0.594495  0.477210  1
  O  O491  1  0.253108  0.906971  0.641639  1
  O  O492  1  0.246984  0.592999  0.512943  1
  O  O493  1  0.331105  0.799692  0.596666  1
  O  O494  1  0.168989  0.700280  0.557915  1
  O  O495  1  0.288999  0.906600  0.604811  1
  O  O496  1  0.211094  0.593371  0.549771  1
  O  O497  1  0.153543  0.596820  0.580830  1
  O  O498  1  0.122452  0.607305  0.539016  1
  O  O499  1  0.041983  0.596917  0.513208  1
  O  O500  1  0.095042  0.700087  0.513136  1
  O  O501  1  0.299020  0.623957  0.545714  1
  O  O502  1  0.201073  0.876012  0.608868  1
  O  O503  1  0.231998  0.000000  0.614623  1
  O  O504  1  0.042739  0.802565  0.512393  1
  O  O505  1  0.287312  0.876372  0.542450  1
  O  O506  1  0.212783  0.623597  0.612132  1
  O  O507  1  0.212786  0.804678  0.550145  1
  O  O508  1  0.287307  0.695295  0.604436  1
  O  O509  1  0.293368  0.749343  0.543991  1
  O  O510  1  0.206723  0.750625  0.610590  1
  O  O511  1  0.154272  0.802095  0.580991  1
  O  O512  1  0.123716  0.793473  0.538343  1
  O  O513  1  0.318213  0.000000  0.548861  1
  O  O514  1  0.003607  0.624254  0.676857  1
  O  O515  1  -0.000000  0.877289  0.670996  1
  O  O516  1  0.006111  0.000000  0.687086  1
  O  O517  1  0.455135  0.399948  0.447341  1
  O  O518  1  0.544955  0.399948  0.707235  1
  O  O519  1  0.403451  0.298865  0.438012  1
  O  O520  1  0.596638  0.298866  0.716565  1
  O  O521  1  0.368622  0.402681  0.455854  1
  O  O522  1  0.631467  0.402680  0.698722  1
  O  O523  1  0.394429  0.404978  0.733634  1
  O  O524  1  0.605660  0.404981  0.420942  1
  O  O525  1  0.368312  0.306931  0.531547  1
  O  O526  1  0.631779  0.306935  0.623029  1
  O  O527  1  0.373297  0.250295  0.494511  1
  O  O528  1  0.626794  0.250298  0.660065  1
  O  O529  1  0.373178  0.377022  0.496369  1
  O  O530  1  0.626913  0.377025  0.658208  1
  O  O531  1  0.446806  0.310540  0.508963  1
  O  O532  1  0.553285  0.310543  0.645613  1
  O  O533  1  0.454224  0.411185  0.703792  1
  O  O534  1  0.545865  0.411185  0.450784  1
  O  O535  1  0.370088  0.376171  0.693329  1
  O  O536  1  0.630002  0.376171  0.461246  1
  O  O537  1  0.355656  0.499981  0.482486  1
  O  O538  1  0.370162  0.197437  0.456540  1
  O  O539  1  0.629929  0.197441  0.698036  1
  O  O540  1  0.395299  0.193842  0.732997  1
  O  O541  1  0.604792  0.193842  0.421579  1
  O  O542  1  0.455403  0.199257  0.447616  1
  O  O543  1  0.544689  0.199256  0.706960  1
  O  O544  1  0.453854  0.197474  0.701747  1
  O  O545  1  0.546238  0.197473  0.452829  1
  O  O546  1  0.505343  0.251178  0.673510  1
  O  O547  1  0.494749  0.251176  0.481066  1
  O  O548  1  0.503610  0.124247  0.676856  1
  O  O549  1  0.496481  0.124245  0.477719  1
  O  O550  1  0.374267  0.249812  0.696083  1
  O  O551  1  0.625826  0.249811  0.458493  1
  O  O552  1  0.376585  0.304390  0.658658  1
  O  O553  1  0.623505  0.304391  0.495918  1
  O  O554  1  0.380817  0.123662  0.696986  1
  O  O555  1  0.619276  0.123661  0.457590  1
  O  O556  1  0.500944  0.377282  0.670994  1
  O  O557  1  0.499145  0.377280  0.483581  1
  O  O558  1  0.369957  0.089686  0.532412  1
  O  O559  1  0.630134  0.089687  0.622164  1
  O  O560  1  0.447140  0.088815  0.509104  1
  O  O561  1  0.552950  0.088815  0.645472  1
  O  O562  1  0.366406  0.124725  0.491890  1
  O  O563  1  0.633683  0.124728  0.662686  1
  O  O564  1  0.376203  0.092680  0.656938  1
  O  O565  1  0.623887  0.092680  0.497638  1
  O  O566  1  0.346549  0.096817  0.573750  1
  O  O567  1  0.653541  0.096818  0.580826  1
  O  O568  1  0.377642  0.107298  0.615563  1
  O  O569  1  0.622447  0.107299  0.539013  1
  O  O570  1  0.458111  0.096904  0.641372  1
  O  O571  1  0.541979  0.096906  0.513204  1
  O  O572  1  0.405055  0.200077  0.641443  1
  O  O573  1  0.595036  0.200078  0.513133  1
  O  O574  1  0.457357  0.302557  0.642186  1
  O  O575  1  0.542734  0.302557  0.512390  1
  O  O576  1  0.345821  0.302087  0.573588  1
  O  O577  1  0.654270  0.302091  0.580989  1
  O  O578  1  0.376382  0.293464  0.616235  1
  O  O579  1  0.623708  0.293467  0.538340  1
  O  O580  1  0.609181  0.499981  0.449143  1
  O  O581  1  0.390909  0.499981  0.705435  1
  O  O582  1  0.644437  0.499982  0.672092  1
  O  O583  1  0.493978  0.499981  0.467491  1
  O  O584  1  0.506112  0.499982  0.687086  1
  O  O585  1  0.544951  0.600016  0.707236  1
  O  O586  1  0.455139  0.600016  0.447343  1
  O  O587  1  0.596639  0.701096  0.716565  1
  O  O588  1  0.403452  0.701095  0.438012  1
  O  O589  1  0.631464  0.597280  0.698722  1
  O  O590  1  0.368626  0.597282  0.455857  1
  O  O591  1  0.605659  0.594982  0.420943  1
  O  O592  1  0.394432  0.594978  0.733636  1
  O  O593  1  0.631775  0.693030  0.623030  1
  O  O594  1  0.368318  0.693027  0.531550  1
  O  O595  1  0.626790  0.749666  0.660065  1
  O  O596  1  0.373302  0.749663  0.494514  1
  O  O597  1  0.626909  0.622939  0.658208  1
  O  O598  1  0.373183  0.622936  0.496371  1
  O  O599  1  0.553281  0.689421  0.645613  1
  O  O600  1  0.446811  0.689418  0.508966  1
  O  O601  1  0.545870  0.588779  0.450787  1
  O  O602  1  0.454221  0.588779  0.703792  1
  O  O603  1  0.630006  0.623791  0.461247  1
  O  O604  1  0.370084  0.623794  0.693333  1
  O  O605  1  0.629923  0.802526  0.698036  1
  O  O606  1  0.370169  0.802522  0.456543  1
  O  O607  1  0.604791  0.806119  0.421579  1
  O  O608  1  0.395301  0.806122  0.732999  1
  O  O609  1  0.544684  0.800701  0.706962  1
  O  O610  1  0.455408  0.800698  0.447617  1
  O  O611  1  0.546243  0.802486  0.452831  1
  O  O612  1  0.453850  0.802491  0.701748  1
  O  O613  1  0.494752  0.748783  0.481068  1
  O  O614  1  0.505339  0.748786  0.673511  1
  O  O615  1  0.496482  0.875714  0.477720  1
  O  O616  1  0.503610  0.875716  0.676857  1
  O  O617  1  0.625831  0.750150  0.458493  1
  O  O618  1  0.374262  0.750153  0.696086  1
  O  O619  1  0.623510  0.695571  0.495918  1
  O  O620  1  0.376581  0.695573  0.658662  1
  O  O621  1  0.619280  0.876301  0.457590  1
  O  O622  1  0.380812  0.876304  0.696989  1
  O  O623  1  0.499148  0.622679  0.483584  1
  O  O624  1  0.500943  0.622682  0.670995  1
  O  O625  1  0.630131  0.910281  0.622163  1
  O  O626  1  0.369961  0.910280  0.532415  1
  O  O627  1  0.552949  0.911148  0.645472  1
  O  O628  1  0.447144  0.911148  0.509106  1
  O  O629  1  0.633681  0.875235  0.662686  1
  O  O630  1  0.366411  0.875232  0.491893  1
  O  O631  1  0.616561  0.000000  0.650449  1
  O  O632  1  0.383531  0.000000  0.504128  1
  O  O633  1  0.623890  0.907283  0.497637  1
  O  O634  1  0.376201  0.907283  0.656941  1
  O  O635  1  0.638187  0.000000  0.470573  1
  O  O636  1  0.361905  -0.000000  0.684004  1
  O  O637  1  0.653541  0.903154  0.580826  1
  O  O638  1  0.346551  0.903153  0.573753  1
  O  O639  1  0.622450  0.892668  0.539012  1
  O  O640  1  0.377641  0.892667  0.615566  1
  O  O641  1  0.541982  0.903057  0.513204  1
  O  O642  1  0.458110  0.903056  0.641374  1
  O  O643  1  0.595040  0.799885  0.513133  1
  O  O644  1  0.405051  0.799885  0.641446  1
  O  O645  1  0.499960  0.000000  0.492731  1
  O  O646  1  0.500131  0.000000  0.661846  1
  O  O647  1  0.542740  0.697404  0.512392  1
  O  O648  1  0.457352  0.697405  0.642188  1
  O  O649  1  0.654271  0.697880  0.580989  1
  O  O650  1  0.345820  0.697876  0.573590  1
  O  O651  1  0.623715  0.706500  0.538341  1
  O  O652  1  0.376376  0.706499  0.616238  1
  O  O653  1  0.955137  0.100018  0.447343  1
  O  O654  1  0.903465  0.201108  0.438011  1
  O  O655  1  0.868624  0.097300  0.455854  1
  O  O656  1  0.894432  0.094995  0.733635  1
  O  O657  1  0.868311  0.193037  0.531547  1
  O  O658  1  0.873296  0.249676  0.494512  1
  O  O659  1  0.873178  0.122949  0.496369  1
  O  O660  1  0.946805  0.189432  0.508964  1
  O  O661  1  0.954225  0.088786  0.703793  1
  O  O662  1  0.870087  0.123800  0.693330  1
  O  O663  1  0.793646  0.094321  0.478683  1
  O  O664  1  0.706446  0.405650  0.675893  1
  O  O665  1  0.870162  0.302527  0.456540  1
  O  O666  1  0.895300  0.306131  0.732998  1
  O  O667  1  0.955403  0.300728  0.447619  1
  O  O668  1  0.799423  0.199689  0.678334  1
  O  O669  1  0.700668  0.300284  0.476241  1
  O  O670  1  0.704138  0.202371  0.675150  1
  O  O671  1  0.795954  0.297604  0.479426  1
  O  O672  1  0.752838  0.198529  0.641953  1
  O  O673  1  0.747252  0.301441  0.512623  1
  O  O674  1  0.753796  0.302893  0.664653  1
  O  O675  1  0.746296  0.197080  0.489922  1
  O  O676  1  0.953852  0.302498  0.701748  1
  O  O677  1  0.994748  0.248798  0.481068  1
  O  O678  1  0.874265  0.250160  0.696084  1
  O  O679  1  0.876587  0.195580  0.658659  1
  O  O680  1  0.880815  0.376310  0.696986  1
  O  O681  1  0.869954  0.410286  0.532411  1
  O  O682  1  0.947140  0.411158  0.509107  1
  O  O683  1  0.866409  0.375246  0.491889  1
  O  O684  1  0.876204  0.407293  0.656938  1
  O  O685  1  0.800766  0.405475  0.677369  1
  O  O686  1  0.699325  0.094496  0.477207  1
  O  O687  1  0.753109  0.406970  0.641635  1
  O  O688  1  0.746982  0.093004  0.512940  1
  O  O689  1  0.831105  0.299694  0.596664  1
  O  O690  1  0.668984  0.200277  0.557912  1
  O  O691  1  0.789000  0.406602  0.604808  1
  O  O692  1  0.711090  0.093371  0.549768  1
  O  O693  1  0.846548  0.403153  0.573749  1
  O  O694  1  0.877642  0.392673  0.615563  1
  O  O695  1  0.958111  0.403065  0.641372  1
  O  O696  1  0.905053  0.299894  0.641443  1
  O  O697  1  0.799016  0.123964  0.545711  1
  O  O698  1  0.701074  0.376011  0.608865  1
  O  O699  1  0.818210  0.499989  0.548861  1
  O  O700  1  0.957358  0.197417  0.642187  1
  O  O701  1  0.787305  0.376379  0.542448  1
  O  O702  1  0.712784  0.123595  0.612128  1
  O  O703  1  0.712779  0.304680  0.550142  1
  O  O704  1  0.787312  0.195291  0.604434  1
  O  O705  1  0.793363  0.249351  0.543990  1
  O  O706  1  0.706729  0.250624  0.610587  1
  O  O707  1  0.845820  0.197881  0.573588  1
  O  O708  1  0.876382  0.206505  0.616236  1
  O  O709  1  0.996484  0.375729  0.477724  1
  O  O710  1  0.731998  0.499986  0.614620  1
  O  O711  1  0.861904  0.499988  0.684004  1
  O  O712  1  -0.000000  0.122694  0.483583  1
  O  O713  1  0.883531  0.499992  0.504128  1
  O  O714  1  -0.000000  0.499992  0.492736  1
  O  O715  1  0.955142  0.899959  0.447344  1
  O  O716  1  0.903464  0.798875  0.438012  1
  O  O717  1  0.868629  0.902684  0.455856  1
  O  O718  1  0.894434  0.904992  0.733636  1
  O  O719  1  0.868316  0.806948  0.531549  1
  O  O720  1  0.873301  0.750311  0.494514  1
  O  O721  1  0.873182  0.877037  0.496371  1
  O  O722  1  0.946810  0.810553  0.508966  1
  O  O723  1  0.954221  0.911193  0.703792  1
  O  O724  1  0.870084  0.876179  0.693333  1
  O  O725  1  0.706442  0.594320  0.675893  1
  O  O726  1  0.793650  0.905655  0.478684  1
  O  O727  1  0.870168  0.697455  0.456542  1
  O  O728  1  0.895301  0.693848  0.733000  1
  O  O729  1  0.955408  0.699263  0.447619  1
  O  O730  1  0.700674  0.699682  0.476242  1
  O  O731  1  0.799418  0.800288  0.678337  1
  O  O732  1  0.795959  0.702378  0.479428  1
  O  O733  1  0.704133  0.797594  0.675151  1
  O  O734  1  0.747257  0.698537  0.512624  1
  O  O735  1  0.752834  0.801442  0.641955  1
  O  O736  1  0.746297  0.802896  0.489922  1
  O  O737  1  0.753795  0.697078  0.664654  1
  O  O738  1  0.953848  0.697480  0.701748  1
  O  O739  1  0.994751  0.751187  0.481069  1
  O  O740  1  0.874260  0.749819  0.696086  1
  O  O741  1  0.876582  0.804400  0.658662  1
  O  O742  1  0.880810  0.623668  0.696988  1
  O  O743  1  0.869958  0.589692  0.532414  1
  O  O744  1  0.947143  0.588824  0.509108  1
  O  O745  1  0.866413  0.624740  0.491892  1
  O  O746  1  -0.000000  0.877290  0.483585  1
  O  O747  1  0.876202  0.592688  0.656940  1
  O  O748  1  0.699329  0.905478  0.477207  1
  O  O749  1  0.800763  0.594496  0.677370  1
  O  O750  1  0.746984  0.906970  0.512940  1
  O  O751  1  0.753107  0.593001  0.641637  1
  O  O752  1  0.668987  0.799694  0.557912  1
  O  O753  1  0.831105  0.700282  0.596665  1
  O  O754  1  0.711091  0.906603  0.549768  1
  O  O755  1  0.788999  0.593375  0.604809  1
  O  O756  1  0.846549  0.596820  0.573751  1
  O  O757  1  0.877640  0.607306  0.615565  1
  O  O758  1  0.958109  0.596917  0.641373  1
  O  O759  1  0.905050  0.700087  0.641445  1
  O  O760  1  0.701072  0.623960  0.608866  1
  O  O761  1  0.799018  0.876016  0.545712  1
  O  O762  1  0.957353  0.802565  0.642188  1
  O  O763  1  0.712781  0.876375  0.612129  1
  O  O764  1  0.787310  0.623600  0.542449  1
  O  O765  1  0.787307  0.804679  0.604435  1
  O  O766  1  0.712785  0.695296  0.550144  1
  O  O767  1  0.706725  0.749346  0.610589  1
  O  O768  1  0.793368  0.750629  0.543990  1
  O  O769  1  0.845820  0.802099  0.573590  1
  O  O770  1  0.876377  0.793474  0.616238  1
  O  O771  1  0.681879  0.000000  0.605716  1
  O  O772  1  0.996485  0.624256  0.477724  1
  O  O773  1  0.768092  0.000000  0.539956  1
  O  O774  1  0.890909  0.000000  0.705436  1
  O  O775  1  0.855657  -0.000000  0.482483  1
  O  O776  1  0.993982  -0.000000  0.467494  1
  O  O777  1  0.105660  0.094992  0.739177  1
  O  O778  1  0.104790  0.306134  0.739813  1
  O  O779  1  0.105660  0.904990  0.739177  1
  O  O780  1  0.104789  0.693848  0.739814  1
  O  O781  1  0.605660  0.404981  0.739175  1
  O  O782  1  0.604792  0.193842  0.739811  1
  O  O783  1  0.605659  0.594982  0.739175  1
  O  O784  1  0.604791  0.806119  0.739812  1
  Si  Si785  1  0.252460  0.275408  0.347785  1
  Si  Si786  1  0.004540  0.188612  0.338850  1
  Si  Si787  1  0.109277  0.188287  0.327714  1
  Si  Si788  1  0.001416  0.308045  0.371779  1
  Si  Si789  1  0.145454  0.190890  0.154777  1
  Si  Si790  1  0.095726  0.123015  0.397277  1
  Si  Si791  1  0.099140  0.310078  0.128702  1
  Si  Si792  1  0.247631  0.224562  0.170330  1
  Si  Si793  1  0.108412  0.422871  0.326889  1
  Si  Si794  1  0.145033  0.422964  0.156820  1
  Si  Si795  1  0.099180  0.076953  0.127296  1
  Si  Si796  1  0.246975  0.381162  0.170697  1
  Si  Si797  1  0.253116  0.118808  0.347419  1
  Si  Si798  1  0.152048  0.077465  0.358077  1
  Si  Si799  1  0.163010  0.377463  0.238909  1
  Si  Si800  1  0.171261  0.190135  0.287691  1
  Si  Si801  1  0.094764  0.377548  0.198201  1
  Si  Si802  1  0.243036  0.077160  0.298679  1
  Si  Si803  1  0.257057  0.422809  0.219437  1
  Si  Si804  1  0.095564  0.279396  0.397620  1
  Si  Si805  1  0.169403  0.422711  0.286905  1
  Si  Si806  1  0.240491  0.309106  0.298716  1
  Si  Si807  1  0.259600  0.190861  0.219398  1
  Si  Si808  1  0.148952  0.307764  0.356217  1
  Si  Si809  1  0.163279  0.221742  0.238687  1
  Si  Si810  1  0.095925  0.221897  0.197549  1
  Si  Si811  1  0.330690  0.077258  0.231211  1
  Si  Si812  1  0.328831  0.309832  0.230423  1
  Si  Si813  1  0.001586  0.077408  0.373743  1
  Si  Si814  1  0.003767  0.422745  0.337913  1
  Si  Si815  1  0.247635  0.775407  0.170331  1
  Si  Si816  1  0.252457  0.724564  0.347787  1
  Si  Si817  1  0.003766  0.577236  0.337913  1
  Si  Si818  1  0.001583  0.922573  0.373744  1
  Si  Si819  1  0.004536  0.811368  0.338851  1
  Si  Si820  1  0.109273  0.811692  0.327714  1
  Si  Si821  1  0.001412  0.691935  0.371780  1
  Si  Si822  1  0.145460  0.809092  0.154777  1
  Si  Si823  1  0.095723  0.876967  0.397277  1
  Si  Si824  1  0.099144  0.689905  0.128703  1
  Si  Si825  1  0.171258  0.809839  0.287692  1
  Si  Si826  1  0.108410  0.577107  0.326889  1
  Si  Si827  1  0.145035  0.577014  0.156819  1
  Si  Si828  1  0.099184  0.923029  0.127296  1
  Si  Si829  1  0.253113  0.881164  0.347420  1
  Si  Si830  1  0.246978  0.618807  0.170698  1
  Si  Si831  1  0.152046  0.922512  0.358077  1
  Si  Si832  1  0.095560  0.720585  0.397620  1
  Si  Si833  1  0.163011  0.622509  0.238909  1
  Si  Si834  1  0.094767  0.622433  0.198200  1
  Si  Si835  1  0.257058  0.577158  0.219437  1
  Si  Si836  1  0.243035  0.922811  0.298680  1
  Si  Si837  1  0.169401  0.577262  0.286905  1
  Si  Si838  1  0.095931  0.778084  0.197549  1
  Si  Si839  1  0.259606  0.809104  0.219400  1
  Si  Si840  1  0.240487  0.690867  0.298718  1
  Si  Si841  1  0.148947  0.692215  0.356217  1
  Si  Si842  1  0.163283  0.778230  0.238688  1
  Si  Si843  1  0.328834  0.690131  0.230425  1
  Si  Si844  1  0.330693  0.922709  0.231213  1
  Si  Si845  1  0.390814  0.311680  0.190400  1
  Si  Si846  1  0.609277  0.311683  0.327712  1
  Si  Si847  1  0.501417  0.191929  0.371778  1
  Si  Si848  1  0.498675  0.191928  0.146333  1
  Si  Si849  1  0.354637  0.309083  0.363337  1
  Si  Si850  1  0.645454  0.309084  0.154774  1
  Si  Si851  1  0.404361  0.376958  0.120838  1
  Si  Si852  1  0.595728  0.376959  0.397274  1
  Si  Si853  1  0.400952  0.189898  0.389412  1
  Si  Si854  1  0.599141  0.189897  0.128699  1
  Si  Si855  1  0.501585  0.422564  0.373742  1
  Si  Si856  1  0.498504  0.422563  0.144369  1
  Si  Si857  1  0.391679  0.077099  0.191226  1
  Si  Si858  1  0.608411  0.077100  0.326886  1
  Si  Si859  1  0.355059  0.077009  0.361296  1
  Si  Si860  1  0.645033  0.077008  0.156816  1
  Si  Si861  1  0.400911  0.423019  0.390818  1
  Si  Si862  1  0.599178  0.423019  0.127293  1
  Si  Si863  1  0.348042  0.422505  0.160038  1
  Si  Si864  1  0.652050  0.422506  0.358074  1
  Si  Si865  1  0.405328  0.122423  0.319915  1
  Si  Si866  1  0.594762  0.122424  0.198197  1
  Si  Si867  1  0.503768  0.077226  0.337912  1
  Si  Si868  1  0.496322  0.077226  0.180199  1
  Si  Si869  1  0.504540  0.311361  0.338849  1
  Si  Si870  1  0.495551  0.311359  0.179262  1
  Si  Si871  1  0.351138  0.192203  0.161897  1
  Si  Si872  1  0.648952  0.192206  0.356215  1
  Si  Si873  1  0.336812  0.278225  0.279427  1
  Si  Si874  1  0.663277  0.278227  0.238685  1
  Si  Si875  1  0.404166  0.278074  0.320565  1
  Si  Si876  1  0.595925  0.278075  0.197547  1
  Si  Si877  1  0.595567  0.220577  0.397617  1
  Si  Si878  1  0.404524  0.220576  0.120495  1
  Si  Si879  1  0.663006  0.122506  0.238905  1
  Si  Si880  1  0.337083  0.122504  0.279207  1
  Si  Si881  1  0.337083  0.877463  0.279209  1
  Si  Si882  1  0.663008  0.877465  0.238905  1
  Si  Si883  1  0.595564  0.779384  0.397618  1
  Si  Si884  1  0.404528  0.779383  0.120496  1
  Si  Si885  1  0.404161  0.721888  0.320567  1
  Si  Si886  1  0.609273  0.688281  0.327712  1
  Si  Si887  1  0.390819  0.688278  0.190403  1
  Si  Si888  1  0.498679  0.808030  0.146335  1
  Si  Si889  1  0.501414  0.808034  0.371780  1
  Si  Si890  1  0.645460  0.690878  0.154775  1
  Si  Si891  1  0.354632  0.690881  0.363340  1
  Si  Si892  1  0.595725  0.623003  0.397275  1
  Si  Si893  1  0.404365  0.623002  0.120839  1
  Si  Si894  1  0.599144  0.810064  0.128700  1
  Si  Si895  1  0.400948  0.810067  0.389414  1
  Si  Si896  1  0.498508  0.577398  0.144371  1
  Si  Si897  1  0.501583  0.577399  0.373743  1
  Si  Si898  1  0.608409  0.922864  0.326886  1
  Si  Si899  1  0.391683  0.922863  0.191228  1
  Si  Si900  1  0.645035  0.922958  0.156816  1
  Si  Si901  1  0.355057  0.922958  0.361298  1
  Si  Si902  1  0.599181  0.576943  0.127294  1
  Si  Si903  1  0.400909  0.576942  0.390820  1
  Si  Si904  1  0.652047  0.577459  0.358074  1
  Si  Si905  1  0.348044  0.577457  0.160040  1
  Si  Si906  1  0.594766  0.877539  0.198196  1
  Si  Si907  1  0.405326  0.877539  0.319917  1
  Si  Si908  1  0.496324  0.922735  0.180199  1
  Si  Si909  1  0.503767  0.922735  0.337914  1
  Si  Si910  1  0.495556  0.688600  0.179265  1
  Si  Si911  1  0.504536  0.688602  0.338850  1
  Si  Si912  1  0.648948  0.807758  0.356215  1
  Si  Si913  1  0.351145  0.807755  0.161900  1
  Si  Si914  1  0.663281  0.721744  0.238686  1
  Si  Si915  1  0.336809  0.721742  0.279429  1
  Si  Si916  1  0.595931  0.721888  0.197547  1
  Si  Si917  1  0.747631  0.275412  0.170328  1
  Si  Si918  1  0.752460  0.224560  0.347783  1
  Si  Si919  1  0.669401  0.077260  0.286901  1
  Si  Si920  1  0.671261  0.309836  0.287689  1
  Si  Si921  1  0.995551  0.188615  0.179264  1
  Si  Si922  1  0.996324  0.422746  0.180203  1
  Si  Si923  1  0.890813  0.188290  0.190400  1
  Si  Si924  1  0.998675  0.308049  0.146336  1
  Si  Si925  1  0.854637  0.190888  0.363337  1
  Si  Si926  1  0.904367  0.123016  0.120838  1
  Si  Si927  1  0.900950  0.310074  0.389413  1
  Si  Si928  1  0.828829  0.190138  0.230423  1
  Si  Si929  1  0.891679  0.422873  0.191225  1
  Si  Si930  1  0.855058  0.422963  0.361295  1
  Si  Si931  1  0.900912  0.076953  0.390819  1
  Si  Si932  1  0.753116  0.381161  0.347417  1
  Si  Si933  1  0.746975  0.118812  0.170694  1
  Si  Si934  1  0.848042  0.077467  0.160037  1
  Si  Si935  1  0.837083  0.377465  0.279206  1
  Si  Si936  1  0.904528  0.279397  0.120495  1
  Si  Si937  1  0.905328  0.377547  0.319914  1
  Si  Si938  1  0.757055  0.077163  0.219434  1
  Si  Si939  1  0.743035  0.422811  0.298677  1
  Si  Si940  1  0.830687  0.422713  0.231210  1
  Si  Si941  1  0.904166  0.221896  0.320565  1
  Si  Si942  1  0.759600  0.309109  0.219397  1
  Si  Si943  1  0.740490  0.190863  0.298714  1
  Si  Si944  1  0.851139  0.307767  0.161897  1
  Si  Si945  1  0.836813  0.221744  0.279427  1
  Si  Si946  1  0.998506  0.077408  0.144372  1
  Si  Si947  1  0.671258  0.690134  0.287690  1
  Si  Si948  1  0.669399  0.922710  0.286901  1
  Si  Si949  1  0.752458  0.775411  0.347784  1
  Si  Si950  1  0.747634  0.724563  0.170329  1
  Si  Si951  1  0.828833  0.809843  0.230424  1
  Si  Si952  1  0.890819  0.811696  0.190403  1
  Si  Si953  1  0.998679  0.691937  0.146337  1
  Si  Si954  1  0.854632  0.809092  0.363340  1
  Si  Si955  1  0.904370  0.876968  0.120839  1
  Si  Si956  1  0.900946  0.689904  0.389414  1
  Si  Si957  1  0.904531  0.720586  0.120496  1
  Si  Si958  1  0.891682  0.577109  0.191227  1
  Si  Si959  1  0.855056  0.577014  0.361297  1
  Si  Si960  1  0.900910  0.923030  0.390820  1
  Si  Si961  1  0.746978  0.881163  0.170695  1
  Si  Si962  1  0.753113  0.618810  0.347418  1
  Si  Si963  1  0.848045  0.922515  0.160039  1
  Si  Si964  1  0.830690  0.577263  0.231212  1
  Si  Si965  1  0.837082  0.622511  0.279208  1
  Si  Si966  1  0.905325  0.622434  0.319916  1
  Si  Si967  1  0.743034  0.577161  0.298678  1
  Si  Si968  1  0.757056  0.922814  0.219434  1
  Si  Si969  1  0.904161  0.778085  0.320567  1
  Si  Si970  1  0.836811  0.778232  0.279428  1
  Si  Si971  1  0.740487  0.809107  0.298716  1
  Si  Si972  1  0.759605  0.690870  0.219398  1
  Si  Si973  1  0.851145  0.692218  0.161899  1
  Si  Si974  1  0.995556  0.811370  0.179266  1
  Si  Si975  1  0.998510  0.922573  0.144373  1
  Si  Si976  1  0.996326  0.577237  0.180203  1
  Si  Si977  1  0.252460  0.275408  0.666017  1
  Si  Si978  1  0.004540  0.188612  0.657082  1
  Si  Si979  1  0.109277  0.188287  0.645947  1
  Si  Si980  1  0.001416  0.308045  0.690012  1
  Si  Si981  1  0.145454  0.190890  0.473009  1
  Si  Si982  1  0.095726  0.123015  0.715509  1
  Si  Si983  1  0.099140  0.310078  0.446934  1
  Si  Si984  1  0.247631  0.224562  0.488562  1
  Si  Si985  1  0.108412  0.422871  0.645122  1
  Si  Si986  1  0.145033  0.422964  0.475052  1
  Si  Si987  1  0.099180  0.076953  0.445528  1
  Si  Si988  1  0.246975  0.381162  0.488929  1
  Si  Si989  1  0.253116  0.118808  0.665651  1
  Si  Si990  1  0.152048  0.077465  0.676309  1
  Si  Si991  1  0.163010  0.377463  0.557141  1
  Si  Si992  1  0.171261  0.190135  0.605923  1
  Si  Si993  1  0.094764  0.377548  0.516433  1
  Si  Si994  1  0.243036  0.077160  0.616912  1
  Si  Si995  1  0.257057  0.422809  0.537669  1
  Si  Si996  1  0.095564  0.279396  0.715852  1
  Si  Si997  1  0.169403  0.422711  0.605137  1
  Si  Si998  1  0.240491  0.309106  0.616949  1
  Si  Si999  1  0.259600  0.190861  0.537630  1
  Si  Si1000  1  0.148952  0.307764  0.674450  1
  Si  Si1001  1  0.163279  0.221742  0.556920  1
  Si  Si1002  1  0.095925  0.221897  0.515782  1
  Si  Si1003  1  0.330690  0.077258  0.549443  1
  Si  Si1004  1  0.328831  0.309832  0.548655  1
  Si  Si1005  1  0.001586  0.077408  0.691975  1
  Si  Si1006  1  0.003767  0.422745  0.656145  1
  Si  Si1007  1  0.247635  0.775407  0.488563  1
  Si  Si1008  1  0.252457  0.724564  0.666019  1
  Si  Si1009  1  0.003766  0.577236  0.656146  1
  Si  Si1010  1  0.001583  0.922573  0.691976  1
  Si  Si1011  1  0.004536  0.811368  0.657083  1
  Si  Si1012  1  0.109273  0.811692  0.645947  1
  Si  Si1013  1  0.001412  0.691935  0.690013  1
  Si  Si1014  1  0.145460  0.809092  0.473009  1
  Si  Si1015  1  0.095723  0.876967  0.715510  1
  Si  Si1016  1  0.099144  0.689905  0.446935  1
  Si  Si1017  1  0.171258  0.809839  0.605924  1
  Si  Si1018  1  0.108410  0.577107  0.645121  1
  Si  Si1019  1  0.145035  0.577014  0.475051  1
  Si  Si1020  1  0.099184  0.923029  0.445529  1
  Si  Si1021  1  0.253113  0.881164  0.665652  1
  Si  Si1022  1  0.246978  0.618807  0.488930  1
  Si  Si1023  1  0.152046  0.922512  0.676309  1
  Si  Si1024  1  0.095560  0.720585  0.715853  1
  Si  Si1025  1  0.163011  0.622509  0.557141  1
  Si  Si1026  1  0.094767  0.622433  0.516433  1
  Si  Si1027  1  0.257058  0.577158  0.537670  1
  Si  Si1028  1  0.243035  0.922811  0.616913  1
  Si  Si1029  1  0.169401  0.577262  0.605137  1
  Si  Si1030  1  0.095931  0.778084  0.515782  1
  Si  Si1031  1  0.259606  0.809104  0.537632  1
  Si  Si1032  1  0.240487  0.690867  0.616951  1
  Si  Si1033  1  0.148947  0.692215  0.674450  1
  Si  Si1034  1  0.163283  0.778230  0.556920  1
  Si  Si1035  1  0.328834  0.690131  0.548657  1
  Si  Si1036  1  0.330693  0.922709  0.549445  1
  Si  Si1037  1  0.390814  0.311680  0.508632  1
  Si  Si1038  1  0.609277  0.311683  0.645944  1
  Si  Si1039  1  0.501417  0.191929  0.690011  1
  Si  Si1040  1  0.498675  0.191928  0.464565  1
  Si  Si1041  1  0.354637  0.309083  0.681569  1
  Si  Si1042  1  0.645454  0.309084  0.473007  1
  Si  Si1043  1  0.404361  0.376958  0.439070  1
  Si  Si1044  1  0.595728  0.376959  0.715506  1
  Si  Si1045  1  0.400952  0.189898  0.707644  1
  Si  Si1046  1  0.599141  0.189897  0.446932  1
  Si  Si1047  1  0.501585  0.422564  0.691974  1
  Si  Si1048  1  0.498504  0.422563  0.462602  1
  Si  Si1049  1  0.391679  0.077099  0.509458  1
  Si  Si1050  1  0.608411  0.077100  0.645119  1
  Si  Si1051  1  0.355059  0.077009  0.679528  1
  Si  Si1052  1  0.645033  0.077008  0.475049  1
  Si  Si1053  1  0.400911  0.423019  0.709050  1
  Si  Si1054  1  0.599178  0.423019  0.445525  1
  Si  Si1055  1  0.348042  0.422505  0.478271  1
  Si  Si1056  1  0.652050  0.422506  0.676306  1
  Si  Si1057  1  0.405328  0.122423  0.638147  1
  Si  Si1058  1  0.594762  0.122424  0.516429  1
  Si  Si1059  1  0.503768  0.077226  0.656145  1
  Si  Si1060  1  0.496322  0.077226  0.498431  1
  Si  Si1061  1  0.504540  0.311361  0.657081  1
  Si  Si1062  1  0.495551  0.311359  0.497495  1
  Si  Si1063  1  0.351138  0.192203  0.480129  1
  Si  Si1064  1  0.648952  0.192206  0.674447  1
  Si  Si1065  1  0.336812  0.278225  0.597659  1
  Si  Si1066  1  0.663277  0.278227  0.556917  1
  Si  Si1067  1  0.404166  0.278074  0.638797  1
  Si  Si1068  1  0.595925  0.278075  0.515779  1
  Si  Si1069  1  0.595567  0.220577  0.715849  1
  Si  Si1070  1  0.404524  0.220576  0.438727  1
  Si  Si1071  1  0.663006  0.122506  0.557138  1
  Si  Si1072  1  0.337083  0.122504  0.597439  1
  Si  Si1073  1  0.337083  0.877463  0.597441  1
  Si  Si1074  1  0.663008  0.877465  0.557137  1
  Si  Si1075  1  0.595564  0.779384  0.715850  1
  Si  Si1076  1  0.404528  0.779383  0.438728  1
  Si  Si1077  1  0.404161  0.721888  0.638800  1
  Si  Si1078  1  0.609273  0.688281  0.645944  1
  Si  Si1079  1  0.390819  0.688278  0.508635  1
  Si  Si1080  1  0.498679  0.808030  0.464567  1
  Si  Si1081  1  0.501414  0.808034  0.690012  1
  Si  Si1082  1  0.645460  0.690878  0.473007  1
  Si  Si1083  1  0.354632  0.690881  0.681572  1
  Si  Si1084  1  0.595725  0.623003  0.715507  1
  Si  Si1085  1  0.404365  0.623002  0.439071  1
  Si  Si1086  1  0.599144  0.810064  0.446933  1
  Si  Si1087  1  0.400948  0.810067  0.707646  1
  Si  Si1088  1  0.498508  0.577398  0.462603  1
  Si  Si1089  1  0.501583  0.577399  0.691975  1
  Si  Si1090  1  0.608409  0.922864  0.645118  1
  Si  Si1091  1  0.391683  0.922863  0.509460  1
  Si  Si1092  1  0.645035  0.922958  0.475048  1
  Si  Si1093  1  0.355057  0.922958  0.679530  1
  Si  Si1094  1  0.599181  0.576943  0.445526  1
  Si  Si1095  1  0.400909  0.576942  0.709052  1
  Si  Si1096  1  0.652047  0.577459  0.676306  1
  Si  Si1097  1  0.348044  0.577457  0.478273  1
  Si  Si1098  1  0.594766  0.877539  0.516429  1
  Si  Si1099  1  0.405326  0.877539  0.638150  1
  Si  Si1100  1  0.496324  0.922735  0.498432  1
  Si  Si1101  1  0.503767  0.922735  0.656146  1
  Si  Si1102  1  0.495556  0.688600  0.497497  1
  Si  Si1103  1  0.504536  0.688602  0.657082  1
  Si  Si1104  1  0.648948  0.807758  0.674447  1
  Si  Si1105  1  0.351145  0.807755  0.480132  1
  Si  Si1106  1  0.663281  0.721744  0.556918  1
  Si  Si1107  1  0.336809  0.721742  0.597661  1
  Si  Si1108  1  0.595931  0.721888  0.515779  1
  Si  Si1109  1  0.747631  0.275412  0.488561  1
  Si  Si1110  1  0.752460  0.224560  0.666015  1
  Si  Si1111  1  0.669401  0.077260  0.605133  1
  Si  Si1112  1  0.671261  0.309836  0.605922  1
  Si  Si1113  1  0.995551  0.188615  0.497496  1
  Si  Si1114  1  0.996324  0.422746  0.498436  1
  Si  Si1115  1  0.890813  0.188290  0.508632  1
  Si  Si1116  1  0.998675  0.308049  0.464568  1
  Si  Si1117  1  0.854637  0.190888  0.681570  1
  Si  Si1118  1  0.904367  0.123016  0.439070  1
  Si  Si1119  1  0.900950  0.310074  0.707645  1
  Si  Si1120  1  0.828829  0.190138  0.548655  1
  Si  Si1121  1  0.891679  0.422873  0.509458  1
  Si  Si1122  1  0.855058  0.422963  0.679527  1
  Si  Si1123  1  0.900912  0.076953  0.709051  1
  Si  Si1124  1  0.753116  0.381161  0.665649  1
  Si  Si1125  1  0.746975  0.118812  0.488926  1
  Si  Si1126  1  0.848042  0.077467  0.478270  1
  Si  Si1127  1  0.837083  0.377465  0.597438  1
  Si  Si1128  1  0.904528  0.279397  0.438727  1
  Si  Si1129  1  0.905328  0.377547  0.638146  1
  Si  Si1130  1  0.757055  0.077163  0.537666  1
  Si  Si1131  1  0.743035  0.422811  0.616909  1
  Si  Si1132  1  0.830687  0.422713  0.549442  1
  Si  Si1133  1  0.904166  0.221896  0.638797  1
  Si  Si1134  1  0.759600  0.309109  0.537629  1
  Si  Si1135  1  0.740490  0.190863  0.616947  1
  Si  Si1136  1  0.851139  0.307767  0.480129  1
  Si  Si1137  1  0.836813  0.221744  0.597659  1
  Si  Si1138  1  0.998506  0.077408  0.462604  1
  Si  Si1139  1  0.671258  0.690134  0.605922  1
  Si  Si1140  1  0.669399  0.922710  0.605133  1
  Si  Si1141  1  0.752458  0.775411  0.666017  1
  Si  Si1142  1  0.747634  0.724563  0.488562  1
  Si  Si1143  1  0.828833  0.809843  0.548657  1
  Si  Si1144  1  0.890819  0.811696  0.508635  1
  Si  Si1145  1  0.998679  0.691937  0.464569  1
  Si  Si1146  1  0.854632  0.809092  0.681572  1
  Si  Si1147  1  0.904370  0.876968  0.439072  1
  Si  Si1148  1  0.900946  0.689904  0.707646  1
  Si  Si1149  1  0.904531  0.720586  0.438729  1
  Si  Si1150  1  0.891682  0.577109  0.509460  1
  Si  Si1151  1  0.855056  0.577014  0.679530  1
  Si  Si1152  1  0.900910  0.923030  0.709052  1
  Si  Si1153  1  0.746978  0.881163  0.488927  1
  Si  Si1154  1  0.753113  0.618810  0.665650  1
  Si  Si1155  1  0.848045  0.922515  0.478271  1
  Si  Si1156  1  0.830690  0.577263  0.549444  1
  Si  Si1157  1  0.837082  0.622511  0.597440  1
  Si  Si1158  1  0.905325  0.622434  0.638149  1
  Si  Si1159  1  0.743034  0.577161  0.616910  1
  Si  Si1160  1  0.757056  0.922814  0.537666  1
  Si  Si1161  1  0.904161  0.778085  0.638800  1
  Si  Si1162  1  0.836811  0.778232  0.597661  1
  Si  Si1163  1  0.740487  0.809107  0.616948  1
  Si  Si1164  1  0.759605  0.690870  0.537630  1
  Si  Si1165  1  0.851145  0.692218  0.480132  1
  Si  Si1166  1  0.995556  0.811370  0.497499  1
  Si  Si1167  1  0.998510  0.922573  0.462605  1
  Si  Si1168  1  0.996326  0.577237  0.498436  1
  H  H1169  1  0.394429  0.404978  0.082463  1
  H  H1170  1  0.395299  0.193842  0.081827  1
  H  H1171  1  0.394432  0.594978  0.082465  1
  H  H1172  1  0.395301  0.806122  0.081829  1
  H  H1173  1  0.894432  0.094995  0.082464  1
  H  H1174  1  0.895300  0.306131  0.081827  1
  H  H1175  1  0.894434  0.904992  0.082466  1
  H  H1176  1  0.895301  0.693848  0.081829  1
  H  H1177  1  0.105660  0.094992  0.088007  1
  H  H1178  1  0.104790  0.306134  0.088643  1
  H  H1179  1  0.105660  0.904990  0.088007  1
  H  H1180  1  0.104789  0.693848  0.088644  1
  H  H1181  1  0.605660  0.404981  0.088004  1
  H  H1182  1  0.604792  0.193842  0.088641  1
  H  H1183  1  0.605659  0.594982  0.088005  1
  H  H1184  1  0.604791  0.806119  0.088641  1
  H  H1185  1  0.394429  0.404978  0.748339  1
  H  H1186  1  0.395299  0.193842  0.747703  1
  H  H1187  1  0.394432  0.594978  0.748342  1
  H  H1188  1  0.395301  0.806122  0.747705  1
  H  H1189  1  0.894432  0.094995  0.748340  1
  H  H1190  1  0.895300  0.306131  0.747704  1
  H  H1191  1  0.894434  0.904992  0.748342  1
  H  H1192  1  0.895301  0.693848  0.747705  1
  H  H1193  1  0.105660  0.094992  0.753883  1
  H  H1194  1  0.104790  0.306134  0.754519  1
  H  H1195  1  0.105660  0.904990  0.753883  1
  H  H1196  1  0.104789  0.693848  0.754520  1
  H  H1197  1  0.605660  0.404981  0.753880  1
  H  H1198  1  0.604792  0.193842  0.754517  1
  H  H1199  1  0.605659  0.594982  0.753881  1
  H  H1200  1  0.604791  0.806119  0.754518  1
