# generated using pymatgen
data_Si24H2O49
_symmetry_space_group_name_H-M   'P 1'
_cell_length_a   28.25841819
_cell_length_b   19.89838588
_cell_length_c   61.23604587
_cell_angle_alpha   90.00000000
_cell_angle_beta   93.20000000
_cell_angle_gamma   90.00000000
_symmetry_Int_Tables_number   1
_chemical_formula_structural   Si24H2O49
_chemical_formula_sum   'Si384 H32 O784'
_cell_volume   34379.1504283
_cell_formula_units_Z   16
loop_
 _symmetry_equiv_pos_site_id
 _symmetry_equiv_pos_as_xyz
  1  'x, y, z'
loop_
 _atom_site_type_symbol
 _atom_site_label
 _atom_site_symmetry_multiplicity
 _atom_site_fract_x
 _atom_site_fract_y
 _atom_site_fract_z
 _atom_site_occupancy
  O  O1  1  0.044955  0.100020  0.230047  1
  O  O2  1  0.096629  0.201108  0.239373  1
  O  O3  1  0.131468  0.097299  0.221540  1
  O  O4  1  0.131779  0.193034  0.145891  1
  O  O5  1  0.126795  0.249673  0.182904  1
  O  O6  1  0.126913  0.122945  0.181049  1
  O  O7  1  0.053286  0.189429  0.168461  1
  O  O8  1  0.206445  0.094316  0.198724  1
  O  O9  1  0.129929  0.302526  0.220854  1
  O  O10  1  0.044688  0.300722  0.229771  1
  O  O11  1  0.299423  0.300280  0.201163  1
  O  O12  1  0.204138  0.297602  0.197981  1
  O  O13  1  0.252839  0.301436  0.164804  1
  O  O14  1  0.253793  0.197076  0.187491  1
  O  O15  1  0.005343  0.248796  0.196341  1
  O  O16  1  0.181881  0.499987  0.128589  1
  O  O17  1  0.130136  0.410284  0.145028  1
  O  O18  1  0.052950  0.411157  0.168320  1
  O  O19  1  0.133682  0.375243  0.185526  1
  O  O20  1  0.300766  0.094495  0.200198  1
  O  O21  1  0.253109  0.093001  0.164486  1
  O  O22  1  0.331104  0.200275  0.119540  1
  O  O23  1  0.289000  0.093368  0.127679  1
  O  O24  1  0.153544  0.403152  0.103714  1
  O  O25  1  0.201074  0.123961  0.131735  1
  O  O26  1  0.212786  0.376376  0.134997  1
  O  O27  1  0.287311  0.304679  0.127305  1
  O  O28  1  0.206728  0.249348  0.133455  1
  O  O29  1  0.154271  0.197878  0.103875  1
  O  O30  1  0.003607  0.375726  0.199684  1
  O  O31  1  -0.000000  0.122692  0.193827  1
  O  O32  1  -0.000000  0.499990  0.184682  1
  O  O33  1  0.116561  0.499989  0.173296  1
  O  O34  1  0.044951  0.899961  0.230048  1
  O  O35  1  0.096628  0.798874  0.239374  1
  O  O36  1  0.131465  0.902681  0.221540  1
  O  O37  1  0.131775  0.806944  0.145891  1
  O  O38  1  0.126791  0.750307  0.182904  1
  O  O39  1  0.126909  0.877033  0.181049  1
  O  O40  1  0.053281  0.810550  0.168461  1
  O  O41  1  0.206442  0.905657  0.198724  1
  O  O42  1  0.144433  -0.000000  0.194927  1
  O  O43  1  0.129923  0.697453  0.220854  1
  O  O44  1  0.044683  0.699261  0.229773  1
  O  O45  1  0.299418  0.699687  0.201166  1
  O  O46  1  0.204133  0.702377  0.197982  1
  O  O47  1  0.252836  0.698536  0.164805  1
  O  O48  1  0.253793  0.802896  0.187493  1
  O  O49  1  0.005340  0.751185  0.196342  1
  O  O50  1  0.130134  0.589691  0.145027  1
  O  O51  1  0.052949  0.588822  0.168320  1
  O  O52  1  0.133679  0.624737  0.185526  1
  O  O53  1  0.300763  0.905477  0.200199  1
  O  O54  1  0.253108  0.906971  0.164488  1
  O  O55  1  0.331105  0.799692  0.119541  1
  O  O56  1  0.288999  0.906600  0.127681  1
  O  O57  1  0.153543  0.596820  0.103714  1
  O  O58  1  0.201073  0.876012  0.131736  1
  O  O59  1  0.231998  -0.000000  0.137487  1
  O  O60  1  0.212783  0.623597  0.134998  1
  O  O61  1  0.287307  0.695295  0.127307  1
  O  O62  1  0.206723  0.750625  0.133457  1
  O  O63  1  0.154272  0.802095  0.103875  1
  O  O64  1  0.003607  0.624254  0.199685  1
  O  O65  1  0.000000  0.877289  0.193828  1
  O  O66  1  0.006111  0.000000  0.209908  1
  O  O67  1  0.544955  0.399948  0.230045  1
  O  O68  1  0.596638  0.298866  0.239370  1
  O  O69  1  0.631467  0.402680  0.221537  1
  O  O70  1  0.394429  0.404978  0.256428  1
  O  O71  1  0.631779  0.306935  0.145889  1
  O  O72  1  0.626794  0.250298  0.182902  1
  O  O73  1  0.626913  0.377025  0.181047  1
  O  O74  1  0.553285  0.310543  0.168459  1
  O  O75  1  0.454224  0.411185  0.226604  1
  O  O76  1  0.370088  0.376171  0.216147  1
  O  O77  1  0.629929  0.197441  0.220852  1
  O  O78  1  0.395299  0.193842  0.255792  1
  O  O79  1  0.544689  0.199256  0.229770  1
  O  O80  1  0.453854  0.197474  0.224561  1
  O  O81  1  0.505343  0.251178  0.196340  1
  O  O82  1  0.503610  0.124247  0.199684  1
  O  O83  1  0.374267  0.249812  0.218900  1
  O  O84  1  0.376585  0.304390  0.181497  1
  O  O85  1  0.380817  0.123662  0.219802  1
  O  O86  1  0.500944  0.377282  0.193826  1
  O  O87  1  0.630134  0.089687  0.145024  1
  O  O88  1  0.552950  0.088815  0.168318  1
  O  O89  1  0.633683  0.124728  0.185522  1
  O  O90  1  0.376203  0.092680  0.179778  1
  O  O91  1  0.346549  0.096817  0.096639  1
  O  O92  1  0.653541  0.096818  0.103710  1
  O  O93  1  0.377642  0.107298  0.138427  1
  O  O94  1  0.458111  0.096904  0.164221  1
  O  O95  1  0.405055  0.200077  0.164292  1
  O  O96  1  0.457357  0.302557  0.165034  1
  O  O97  1  0.345821  0.302087  0.096476  1
  O  O98  1  0.654270  0.302091  0.103873  1
  O  O99  1  0.376382  0.293464  0.139099  1
  O  O100  1  0.390909  0.499981  0.228246  1
  O  O101  1  0.644437  0.499982  0.194923  1
  O  O102  1  0.506112  0.499982  0.209908  1
  O  O103  1  0.544951  0.600016  0.230046  1
  O  O104  1  0.596639  0.701096  0.239370  1
  O  O105  1  0.631464  0.597280  0.221537  1
  O  O106  1  0.394432  0.594978  0.256430  1
  O  O107  1  0.631775  0.693030  0.145889  1
  O  O108  1  0.626790  0.749666  0.182903  1
  O  O109  1  0.626909  0.622939  0.181047  1
  O  O110  1  0.553281  0.689421  0.168460  1
  O  O111  1  0.454221  0.588779  0.226604  1
  O  O112  1  0.370084  0.623794  0.216151  1
  O  O113  1  0.629923  0.802526  0.220852  1
  O  O114  1  0.395301  0.806122  0.255794  1
  O  O115  1  0.544684  0.800701  0.229772  1
  O  O116  1  0.453850  0.802491  0.224561  1
  O  O117  1  0.505339  0.748786  0.196340  1
  O  O118  1  0.503610  0.875716  0.199685  1
  O  O119  1  0.374262  0.750153  0.218903  1
  O  O120  1  0.376581  0.695573  0.181500  1
  O  O121  1  0.380812  0.876304  0.219805  1
  O  O122  1  0.500943  0.622682  0.193827  1
  O  O123  1  0.630131  0.910281  0.145023  1
  O  O124  1  0.552949  0.911148  0.168318  1
  O  O125  1  0.633681  0.875235  0.185522  1
  O  O126  1  0.616561  -0.000000  0.173293  1
  O  O127  1  0.376201  0.907283  0.179780  1
  O  O128  1  0.361905  0.000000  0.206828  1
  O  O129  1  0.653541  0.903154  0.103710  1
  O  O130  1  0.346551  0.903153  0.096641  1
  O  O131  1  0.377641  0.892667  0.138430  1
  O  O132  1  0.458110  0.903056  0.164223  1
  O  O133  1  0.405051  0.799885  0.164294  1
  O  O134  1  0.500131  -0.000000  0.184682  1
  O  O135  1  0.457352  0.697405  0.165036  1
  O  O136  1  0.654271  0.697880  0.103873  1
  O  O137  1  0.345820  0.697876  0.096479  1
  O  O138  1  0.376376  0.706499  0.139102  1
  O  O139  1  0.894432  0.094995  0.256429  1
  O  O140  1  0.954225  0.088786  0.226605  1
  O  O141  1  0.870087  0.123800  0.216149  1
  O  O142  1  0.706446  0.405650  0.198721  1
  O  O143  1  0.895300  0.306131  0.255793  1
  O  O144  1  0.799423  0.199689  0.201161  1
  O  O145  1  0.704138  0.202371  0.197979  1
  O  O146  1  0.752838  0.198529  0.164802  1
  O  O147  1  0.753796  0.302893  0.187488  1
  O  O148  1  0.953852  0.302498  0.224561  1
  O  O149  1  0.874265  0.250160  0.218900  1
  O  O150  1  0.876587  0.195580  0.181498  1
  O  O151  1  0.880815  0.376310  0.219802  1
  O  O152  1  0.876204  0.407293  0.179777  1
  O  O153  1  0.800766  0.405475  0.200196  1
  O  O154  1  0.753109  0.406970  0.164484  1
  O  O155  1  0.831105  0.299694  0.119539  1
  O  O156  1  0.789000  0.406602  0.127678  1
  O  O157  1  0.846548  0.403153  0.096638  1
  O  O158  1  0.877642  0.392673  0.138427  1
  O  O159  1  0.958111  0.403065  0.164220  1
  O  O160  1  0.905053  0.299894  0.164292  1
  O  O161  1  0.701074  0.376011  0.131733  1
  O  O162  1  0.957358  0.197417  0.165035  1
  O  O163  1  0.712784  0.123595  0.134994  1
  O  O164  1  0.787312  0.195291  0.127304  1
  O  O165  1  0.706729  0.250624  0.133453  1
  O  O166  1  0.845820  0.197881  0.096476  1
  O  O167  1  0.876382  0.206505  0.139099  1
  O  O168  1  0.731998  0.499986  0.137484  1
  O  O169  1  0.861904  0.499988  0.206827  1
  O  O170  1  0.894434  0.904992  0.256431  1
  O  O171  1  0.954221  0.911193  0.226604  1
  O  O172  1  0.870084  0.876179  0.216151  1
  O  O173  1  0.706442  0.594320  0.198722  1
  O  O174  1  0.895301  0.693848  0.255795  1
  O  O175  1  0.799418  0.800288  0.201164  1
  O  O176  1  0.704133  0.797594  0.197980  1
  O  O177  1  0.752834  0.801442  0.164803  1
  O  O178  1  0.753795  0.697078  0.187489  1
  O  O179  1  0.953848  0.697480  0.224561  1
  O  O180  1  0.874260  0.749819  0.218903  1
  O  O181  1  0.876582  0.804400  0.181500  1
  O  O182  1  0.880810  0.623668  0.219805  1
  O  O183  1  0.876202  0.592688  0.179780  1
  O  O184  1  0.800763  0.594496  0.200197  1
  O  O185  1  0.753107  0.593001  0.164485  1
  O  O186  1  0.831105  0.700282  0.119540  1
  O  O187  1  0.788999  0.593375  0.127679  1
  O  O188  1  0.846549  0.596820  0.096640  1
  O  O189  1  0.877640  0.607306  0.138429  1
  O  O190  1  0.958109  0.596917  0.164222  1
  O  O191  1  0.905050  0.700087  0.164294  1
  O  O192  1  0.701072  0.623960  0.131734  1
  O  O193  1  0.957353  0.802565  0.165036  1
  O  O194  1  0.712781  0.876375  0.134995  1
  O  O195  1  0.787307  0.804679  0.127306  1
  O  O196  1  0.706725  0.749346  0.133455  1
  O  O197  1  0.845820  0.802099  0.096478  1
  O  O198  1  0.876377  0.793474  0.139102  1
  O  O199  1  0.681879  -0.000000  0.128586  1
  O  O200  1  0.890909  -0.000000  0.228247  1
  O  O201  1  0.044955  0.100020  0.548092  1
  O  O202  1  0.096629  0.201108  0.557419  1
  O  O203  1  0.131468  0.097299  0.539586  1
  O  O204  1  0.105660  0.094992  0.261969  1
  O  O205  1  0.131779  0.193034  0.463937  1
  O  O206  1  0.126795  0.249673  0.500950  1
  O  O207  1  0.126913  0.122945  0.499095  1
  O  O208  1  0.053286  0.189429  0.486507  1
  O  O209  1  0.045867  0.088786  0.291793  1
  O  O210  1  0.130005  0.123802  0.302248  1
  O  O211  1  0.206445  0.094316  0.516769  1
  O  O212  1  0.293645  0.405652  0.319675  1
  O  O213  1  0.129929  0.302526  0.538900  1
  O  O214  1  0.104790  0.306134  0.262604  1
  O  O215  1  0.044688  0.300722  0.547817  1
  O  O216  1  0.200668  0.199694  0.317234  1
  O  O217  1  0.299423  0.300280  0.519209  1
  O  O218  1  0.295953  0.202370  0.320416  1
  O  O219  1  0.204138  0.297602  0.516027  1
  O  O220  1  0.247253  0.198528  0.353593  1
  O  O221  1  0.252839  0.301436  0.482849  1
  O  O222  1  0.246298  0.302894  0.330908  1
  O  O223  1  0.253793  0.197076  0.505537  1
  O  O224  1  0.046238  0.302503  0.293836  1
  O  O225  1  0.005343  0.248796  0.514387  1
  O  O226  1  0.125824  0.250162  0.299497  1
  O  O227  1  0.123505  0.195582  0.336899  1
  O  O228  1  0.119276  0.376312  0.298595  1
  O  O229  1  0.181881  0.499987  0.446635  1
  O  O230  1  0.130136  0.410284  0.463073  1
  O  O231  1  0.052950  0.411157  0.486365  1
  O  O232  1  0.133682  0.375243  0.503572  1
  O  O233  1  0.123888  0.407292  0.338620  1
  O  O234  1  0.138187  0.499989  0.311572  1
  O  O235  1  0.199325  0.405476  0.318201  1
  O  O236  1  0.300766  0.094495  0.518243  1
  O  O237  1  0.246982  0.406971  0.353912  1
  O  O238  1  0.253109  0.093001  0.482532  1
  O  O239  1  0.168987  0.299692  0.398858  1
  O  O240  1  0.331104  0.200275  0.437586  1
  O  O241  1  0.211093  0.406598  0.390720  1
  O  O242  1  0.289000  0.093368  0.445725  1
  O  O243  1  0.153544  0.403152  0.421760  1
  O  O244  1  0.122451  0.392672  0.379971  1
  O  O245  1  0.041980  0.403066  0.354178  1
  O  O246  1  0.095038  0.299895  0.354106  1
  O  O247  1  0.201074  0.123961  0.449781  1
  O  O248  1  0.299019  0.376008  0.386663  1
  O  O249  1  0.268094  0.499983  0.380913  1
  O  O250  1  0.042733  0.197418  0.353362  1
  O  O251  1  0.212786  0.376376  0.453043  1
  O  O252  1  0.287307  0.123592  0.383401  1
  O  O253  1  0.287311  0.304679  0.445351  1
  O  O254  1  0.212780  0.195289  0.391091  1
  O  O255  1  0.206728  0.249348  0.451501  1
  O  O256  1  0.293362  0.250621  0.384941  1
  O  O257  1  0.154271  0.197878  0.421921  1
  O  O258  1  0.123709  0.206504  0.379298  1
  O  O259  1  0.003607  0.375726  0.517730  1
  O  O260  1  -0.000000  0.122692  0.511873  1
  O  O261  1  0.000000  0.499990  0.502728  1
  O  O262  1  0.116561  0.499989  0.491342  1
  O  O263  1  0.044951  0.899961  0.548094  1
  O  O264  1  0.096628  0.798874  0.557420  1
  O  O265  1  0.131465  0.902681  0.539586  1
  O  O266  1  0.105660  0.904990  0.261969  1
  O  O267  1  0.131775  0.806944  0.463937  1
  O  O268  1  0.126791  0.750307  0.500950  1
  O  O269  1  0.126909  0.877033  0.499095  1
  O  O270  1  0.053281  0.810550  0.486507  1
  O  O271  1  0.045872  0.911194  0.291795  1
  O  O272  1  0.109184  -0.000000  0.290152  1
  O  O273  1  0.130010  0.876180  0.302248  1
  O  O274  1  0.293649  0.594316  0.319676  1
  O  O275  1  0.206442  0.905657  0.516770  1
  O  O276  1  0.144433  -0.000000  0.512973  1
  O  O277  1  0.129923  0.697453  0.538900  1
  O  O278  1  0.104789  0.693848  0.262605  1
  O  O279  1  0.044683  0.699261  0.547819  1
  O  O280  1  0.299418  0.699687  0.519211  1
  O  O281  1  0.200674  0.800285  0.317235  1
  O  O282  1  0.204133  0.702377  0.516028  1
  O  O283  1  0.295959  0.797591  0.320417  1
  O  O284  1  0.252836  0.698536  0.482851  1
  O  O285  1  0.247258  0.801438  0.353595  1
  O  O286  1  0.253793  0.802896  0.505538  1
  O  O287  1  0.246298  0.697075  0.330909  1
  O  O288  1  0.046243  0.697482  0.293839  1
  O  O289  1  0.005340  0.751185  0.514388  1
  O  O290  1  0.125830  0.749820  0.299497  1
  O  O291  1  0.123510  0.804400  0.336899  1
  O  O292  1  0.119280  0.623669  0.298595  1
  O  O293  1  0.130134  0.589691  0.463073  1
  O  O294  1  0.052949  0.588822  0.486365  1
  O  O295  1  0.133679  0.624737  0.503571  1
  O  O296  1  0.123890  0.592688  0.338620  1
  O  O297  1  0.300763  0.905477  0.518245  1
  O  O298  1  0.199328  0.594495  0.318201  1
  O  O299  1  0.253108  0.906971  0.482533  1
  O  O300  1  0.246984  0.592999  0.353913  1
  O  O301  1  0.331105  0.799692  0.437587  1
  O  O302  1  0.168989  0.700280  0.398859  1
  O  O303  1  0.288999  0.906600  0.445726  1
  O  O304  1  0.211094  0.593371  0.390720  1
  O  O305  1  0.153543  0.596820  0.421759  1
  O  O306  1  0.122452  0.607305  0.379971  1
  O  O307  1  0.041983  0.596917  0.354178  1
  O  O308  1  0.095042  0.700087  0.354106  1
  O  O309  1  0.299020  0.623957  0.386664  1
  O  O310  1  0.201073  0.876012  0.449782  1
  O  O311  1  0.231998  0.000000  0.455533  1
  O  O312  1  0.042739  0.802565  0.353363  1
  O  O313  1  0.287312  0.876372  0.383403  1
  O  O314  1  0.212783  0.623597  0.453044  1
  O  O315  1  0.212786  0.804678  0.391093  1
  O  O316  1  0.287307  0.695295  0.445352  1
  O  O317  1  0.293368  0.749343  0.384943  1
  O  O318  1  0.206723  0.750625  0.451503  1
  O  O319  1  0.154272  0.802095  0.421921  1
  O  O320  1  0.123716  0.793473  0.379298  1
  O  O321  1  0.318213  0.000000  0.389810  1
  O  O322  1  0.003607  0.624254  0.517731  1
  O  O323  1  0.000000  0.877289  0.511873  1
  O  O324  1  0.006111  0.000000  0.527954  1
  O  O325  1  0.455135  0.399948  0.288349  1
  O  O326  1  0.544955  0.399948  0.548091  1
  O  O327  1  0.403451  0.298865  0.279025  1
  O  O328  1  0.596638  0.298866  0.557416  1
  O  O329  1  0.368622  0.402681  0.296858  1
  O  O330  1  0.631467  0.402680  0.539583  1
  O  O331  1  0.394429  0.404978  0.574474  1
  O  O332  1  0.605660  0.404981  0.261966  1
  O  O333  1  0.368312  0.306931  0.372506  1
  O  O334  1  0.631779  0.306935  0.463935  1
  O  O335  1  0.373297  0.250295  0.335492  1
  O  O336  1  0.626794  0.250298  0.500948  1
  O  O337  1  0.373178  0.377022  0.337348  1
  O  O338  1  0.626913  0.377025  0.499092  1
  O  O339  1  0.446806  0.310540  0.349935  1
  O  O340  1  0.553285  0.310543  0.486505  1
  O  O341  1  0.454224  0.411185  0.544650  1
  O  O342  1  0.545865  0.411185  0.291790  1
  O  O343  1  0.370088  0.376171  0.534193  1
  O  O344  1  0.630002  0.376171  0.302246  1
  O  O345  1  0.355656  0.499981  0.323473  1
  O  O346  1  0.370162  0.197437  0.297543  1
  O  O347  1  0.629929  0.197441  0.538897  1
  O  O348  1  0.395299  0.193842  0.573838  1
  O  O349  1  0.604792  0.193842  0.262602  1
  O  O350  1  0.455403  0.199257  0.288624  1
  O  O351  1  0.544689  0.199256  0.547816  1
  O  O352  1  0.453854  0.197474  0.542606  1
  O  O353  1  0.546238  0.197473  0.293834  1
  O  O354  1  0.505343  0.251178  0.514386  1
  O  O355  1  0.494749  0.251176  0.322055  1
  O  O356  1  0.503610  0.124247  0.517729  1
  O  O357  1  0.496481  0.124245  0.318710  1
  O  O358  1  0.374267  0.249812  0.536945  1
  O  O359  1  0.625826  0.249811  0.299495  1
  O  O360  1  0.376585  0.304390  0.499543  1
  O  O361  1  0.623505  0.304391  0.336897  1
  O  O362  1  0.380817  0.123662  0.537848  1
  O  O363  1  0.619276  0.123661  0.298592  1
  O  O364  1  0.500944  0.377282  0.511871  1
  O  O365  1  0.499145  0.377280  0.324568  1
  O  O366  1  0.369957  0.089686  0.373371  1
  O  O367  1  0.630134  0.089687  0.463070  1
  O  O368  1  0.447140  0.088815  0.350076  1
  O  O369  1  0.552950  0.088815  0.486364  1
  O  O370  1  0.366406  0.124725  0.332872  1
  O  O371  1  0.633683  0.124728  0.503568  1
  O  O372  1  0.376203  0.092680  0.497824  1
  O  O373  1  0.623887  0.092680  0.338617  1
  O  O374  1  0.346549  0.096817  0.414684  1
  O  O375  1  0.653541  0.096818  0.421756  1
  O  O376  1  0.377642  0.107298  0.456473  1
  O  O377  1  0.622447  0.107299  0.379967  1
  O  O378  1  0.458111  0.096904  0.482266  1
  O  O379  1  0.541979  0.096906  0.354173  1
  O  O380  1  0.405055  0.200077  0.482337  1
  O  O381  1  0.595036  0.200078  0.354103  1
  O  O382  1  0.457357  0.302557  0.483080  1
  O  O383  1  0.542734  0.302557  0.353360  1
  O  O384  1  0.345821  0.302087  0.414522  1
  O  O385  1  0.654270  0.302091  0.421919  1
  O  O386  1  0.376382  0.293464  0.457145  1
  O  O387  1  0.623708  0.293467  0.379295  1
  O  O388  1  0.609181  0.499981  0.290150  1
  O  O389  1  0.390909  0.499981  0.546292  1
  O  O390  1  0.644437  0.499982  0.512968  1
  O  O391  1  0.493978  0.499981  0.308487  1
  O  O392  1  0.506112  0.499982  0.527954  1
  O  O393  1  0.544951  0.600016  0.548092  1
  O  O394  1  0.455139  0.600016  0.288351  1
  O  O395  1  0.596639  0.701096  0.557416  1
  O  O396  1  0.403452  0.701095  0.279026  1
  O  O397  1  0.631464  0.597280  0.539583  1
  O  O398  1  0.368626  0.597282  0.296860  1
  O  O399  1  0.605659  0.594982  0.261967  1
  O  O400  1  0.394432  0.594978  0.574476  1
  O  O401  1  0.631775  0.693030  0.463935  1
  O  O402  1  0.368318  0.693027  0.372509  1
  O  O403  1  0.626790  0.749666  0.500948  1
  O  O404  1  0.373302  0.749663  0.335495  1
  O  O405  1  0.626909  0.622939  0.499092  1
  O  O406  1  0.373183  0.622936  0.337350  1
  O  O407  1  0.553281  0.689421  0.486505  1
  O  O408  1  0.446811  0.689418  0.349938  1
  O  O409  1  0.545870  0.588779  0.291793  1
  O  O410  1  0.454221  0.588779  0.544650  1
  O  O411  1  0.630006  0.623791  0.302247  1
  O  O412  1  0.370084  0.623794  0.534197  1
  O  O413  1  0.629923  0.802526  0.538897  1
  O  O414  1  0.370169  0.802522  0.297545  1
  O  O415  1  0.604791  0.806119  0.262603  1
  O  O416  1  0.395301  0.806122  0.573840  1
  O  O417  1  0.544684  0.800701  0.547818  1
  O  O418  1  0.455408  0.800698  0.288625  1
  O  O419  1  0.546243  0.802486  0.293836  1
  O  O420  1  0.453850  0.802491  0.542607  1
  O  O421  1  0.494752  0.748783  0.322057  1
  O  O422  1  0.505339  0.748786  0.514386  1
  O  O423  1  0.496482  0.875714  0.318711  1
  O  O424  1  0.503610  0.875716  0.517731  1
  O  O425  1  0.625831  0.750150  0.299495  1
  O  O426  1  0.374262  0.750153  0.536949  1
  O  O427  1  0.623510  0.695571  0.336897  1
  O  O428  1  0.376581  0.695573  0.499546  1
  O  O429  1  0.619280  0.876301  0.298592  1
  O  O430  1  0.380812  0.876304  0.537851  1
  O  O431  1  0.499148  0.622679  0.324570  1
  O  O432  1  0.500943  0.622682  0.511872  1
  O  O433  1  0.630131  0.910281  0.463069  1
  O  O434  1  0.369961  0.910280  0.373373  1
  O  O435  1  0.552949  0.911148  0.486364  1
  O  O436  1  0.447144  0.911148  0.350078  1
  O  O437  1  0.633681  0.875235  0.503568  1
  O  O438  1  0.366411  0.875232  0.332875  1
  O  O439  1  0.616561  0.000000  0.491338  1
  O  O440  1  0.383531  -0.000000  0.345103  1
  O  O441  1  0.623890  0.907283  0.338616  1
  O  O442  1  0.376201  0.907283  0.497826  1
  O  O443  1  0.638187  -0.000000  0.311568  1
  O  O444  1  0.361905  -0.000000  0.524873  1
  O  O445  1  0.653541  0.903154  0.421756  1
  O  O446  1  0.346551  0.903153  0.414687  1
  O  O447  1  0.622450  0.892668  0.379967  1
  O  O448  1  0.377641  0.892667  0.456475  1
  O  O449  1  0.541982  0.903057  0.354173  1
  O  O450  1  0.458110  0.903056  0.482269  1
  O  O451  1  0.595040  0.799885  0.354103  1
  O  O452  1  0.405051  0.799885  0.482340  1
  O  O453  1  0.499960  -0.000000  0.333712  1
  O  O454  1  0.500131  0.000000  0.502728  1
  O  O455  1  0.542740  0.697404  0.353362  1
  O  O456  1  0.457352  0.697405  0.483082  1
  O  O457  1  0.654271  0.697880  0.421919  1
  O  O458  1  0.345820  0.697876  0.414525  1
  O  O459  1  0.623715  0.706500  0.379296  1
  O  O460  1  0.376376  0.706499  0.457147  1
  O  O461  1  0.955137  0.100018  0.288351  1
  O  O462  1  0.903465  0.201108  0.279025  1
  O  O463  1  0.868624  0.097300  0.296858  1
  O  O464  1  0.894432  0.094995  0.574475  1
  O  O465  1  0.868311  0.193037  0.372506  1
  O  O466  1  0.873296  0.249676  0.335493  1
  O  O467  1  0.873178  0.122949  0.337348  1
  O  O468  1  0.946805  0.189432  0.349936  1
  O  O469  1  0.954225  0.088786  0.544651  1
  O  O470  1  0.870087  0.123800  0.534194  1
  O  O471  1  0.793646  0.094321  0.319673  1
  O  O472  1  0.706446  0.405650  0.516767  1
  O  O473  1  0.870162  0.302527  0.297543  1
  O  O474  1  0.895300  0.306131  0.573838  1
  O  O475  1  0.955403  0.300728  0.288627  1
  O  O476  1  0.799423  0.199689  0.519207  1
  O  O477  1  0.700668  0.300284  0.317232  1
  O  O478  1  0.704138  0.202371  0.516025  1
  O  O479  1  0.795954  0.297604  0.320415  1
  O  O480  1  0.752838  0.198529  0.482847  1
  O  O481  1  0.747252  0.301441  0.353592  1
  O  O482  1  0.753796  0.302893  0.505534  1
  O  O483  1  0.746296  0.197080  0.330905  1
  O  O484  1  0.953852  0.302498  0.542607  1
  O  O485  1  0.994748  0.248798  0.322056  1
  O  O486  1  0.874265  0.250160  0.536946  1
  O  O487  1  0.876587  0.195580  0.499543  1
  O  O488  1  0.880815  0.376310  0.537848  1
  O  O489  1  0.869954  0.410286  0.373370  1
  O  O490  1  0.947140  0.411158  0.350079  1
  O  O491  1  0.866409  0.375246  0.332871  1
  O  O492  1  0.876204  0.407293  0.497823  1
  O  O493  1  0.800766  0.405475  0.518242  1
  O  O494  1  0.699325  0.094496  0.318198  1
  O  O495  1  0.753109  0.406970  0.482530  1
  O  O496  1  0.746982  0.093004  0.353910  1
  O  O497  1  0.831105  0.299694  0.437585  1
  O  O498  1  0.668984  0.200277  0.398855  1
  O  O499  1  0.789000  0.406602  0.445724  1
  O  O500  1  0.711090  0.093371  0.390716  1
  O  O501  1  0.846548  0.403153  0.414683  1
  O  O502  1  0.877642  0.392673  0.456472  1
  O  O503  1  0.958111  0.403065  0.482266  1
  O  O504  1  0.905053  0.299894  0.482337  1
  O  O505  1  0.799016  0.123964  0.386662  1
  O  O506  1  0.701074  0.376011  0.449778  1
  O  O507  1  0.818210  0.499989  0.389810  1
  O  O508  1  0.957358  0.197417  0.483081  1
  O  O509  1  0.787305  0.376379  0.383400  1
  O  O510  1  0.712784  0.123595  0.453039  1
  O  O511  1  0.712779  0.304680  0.391090  1
  O  O512  1  0.787312  0.195291  0.445350  1
  O  O513  1  0.793363  0.249351  0.384941  1
  O  O514  1  0.706729  0.250624  0.451499  1
  O  O515  1  0.845820  0.197881  0.414522  1
  O  O516  1  0.876382  0.206505  0.457145  1
  O  O517  1  0.996484  0.375729  0.318714  1
  O  O518  1  0.731998  0.499986  0.455530  1
  O  O519  1  0.861904  0.499988  0.524873  1
  O  O520  1  -0.000000  0.122694  0.324570  1
  O  O521  1  0.883531  0.499992  0.345103  1
  O  O522  1  0.000000  0.499992  0.333717  1
  O  O523  1  0.955142  0.899959  0.288352  1
  O  O524  1  0.903464  0.798875  0.279025  1
  O  O525  1  0.868629  0.902684  0.296859  1
  O  O526  1  0.894434  0.904992  0.574476  1
  O  O527  1  0.868316  0.806948  0.372508  1
  O  O528  1  0.873301  0.750311  0.335495  1
  O  O529  1  0.873182  0.877037  0.337350  1
  O  O530  1  0.946810  0.810553  0.349938  1
  O  O531  1  0.954221  0.911193  0.544650  1
  O  O532  1  0.870084  0.876179  0.534197  1
  O  O533  1  0.706442  0.594320  0.516767  1
  O  O534  1  0.793650  0.905655  0.319674  1
  O  O535  1  0.870168  0.697455  0.297545  1
  O  O536  1  0.895301  0.693848  0.573840  1
  O  O537  1  0.955408  0.699263  0.288627  1
  O  O538  1  0.700674  0.699682  0.317233  1
  O  O539  1  0.799418  0.800288  0.519210  1
  O  O540  1  0.795959  0.702378  0.320417  1
  O  O541  1  0.704133  0.797594  0.516026  1
  O  O542  1  0.747257  0.698537  0.353594  1
  O  O543  1  0.752834  0.801442  0.482849  1
  O  O544  1  0.746297  0.802896  0.330905  1
  O  O545  1  0.753795  0.697078  0.505535  1
  O  O546  1  0.953848  0.697480  0.542607  1
  O  O547  1  0.994751  0.751187  0.322058  1
  O  O548  1  0.874260  0.749819  0.536949  1
  O  O549  1  0.876582  0.804400  0.499546  1
  O  O550  1  0.880810  0.623668  0.537850  1
  O  O551  1  0.869958  0.589692  0.373372  1
  O  O552  1  0.947143  0.588824  0.350080  1
  O  O553  1  0.866413  0.624740  0.332874  1
  O  O554  1  0.000000  0.877290  0.324572  1
  O  O555  1  0.876202  0.592688  0.497826  1
  O  O556  1  0.699329  0.905478  0.318198  1
  O  O557  1  0.800763  0.594496  0.518243  1
  O  O558  1  0.746984  0.906970  0.353910  1
  O  O559  1  0.753107  0.593001  0.482531  1
  O  O560  1  0.668987  0.799694  0.398856  1
  O  O561  1  0.831105  0.700282  0.437586  1
  O  O562  1  0.711091  0.906603  0.390716  1
  O  O563  1  0.788999  0.593375  0.445725  1
  O  O564  1  0.846549  0.596820  0.414686  1
  O  O565  1  0.877640  0.607306  0.456475  1
  O  O566  1  0.958109  0.596917  0.482268  1
  O  O567  1  0.905050  0.700087  0.482340  1
  O  O568  1  0.701072  0.623960  0.449779  1
  O  O569  1  0.799018  0.876016  0.386663  1
  O  O570  1  0.957353  0.802565  0.483082  1
  O  O571  1  0.712781  0.876375  0.453040  1
  O  O572  1  0.787310  0.623600  0.383401  1
  O  O573  1  0.787307  0.804679  0.445351  1
  O  O574  1  0.712785  0.695296  0.391092  1
  O  O575  1  0.706725  0.749346  0.451501  1
  O  O576  1  0.793368  0.750629  0.384942  1
  O  O577  1  0.845820  0.802099  0.414524  1
  O  O578  1  0.876377  0.793474  0.457147  1
  O  O579  1  0.681879  -0.000000  0.446631  1
  O  O580  1  0.996485  0.624256  0.318715  1
  O  O581  1  0.768092  -0.000000  0.380909  1
  O  O582  1  0.890909  -0.000000  0.546293  1
  O  O583  1  0.855657  -0.000000  0.323471  1
  O  O584  1  0.993982  -0.000000  0.308490  1
  O  O585  1  0.105660  0.094992  0.580014  1
  O  O586  1  0.045867  0.088786  0.609838  1
  O  O587  1  0.130005  0.123802  0.620294  1
  O  O588  1  0.293645  0.405652  0.637720  1
  O  O589  1  0.104790  0.306134  0.580650  1
  O  O590  1  0.200668  0.199694  0.635280  1
  O  O591  1  0.295953  0.202370  0.638462  1
  O  O592  1  0.247253  0.198528  0.671639  1
  O  O593  1  0.246298  0.302894  0.648954  1
  O  O594  1  0.046238  0.302503  0.611882  1
  O  O595  1  0.125824  0.250162  0.617542  1
  O  O596  1  0.123505  0.195582  0.654945  1
  O  O597  1  0.119276  0.376312  0.616641  1
  O  O598  1  0.123888  0.407292  0.656666  1
  O  O599  1  0.138187  0.499989  0.629617  1
  O  O600  1  0.199325  0.405476  0.636247  1
  O  O601  1  0.246982  0.406971  0.671958  1
  O  O602  1  0.168987  0.299692  0.716904  1
  O  O603  1  0.211093  0.406598  0.708765  1
  O  O604  1  0.153544  0.403152  0.739806  1
  O  O605  1  0.122451  0.392672  0.698017  1
  O  O606  1  0.041980  0.403066  0.672224  1
  O  O607  1  0.095038  0.299895  0.672152  1
  O  O608  1  0.299019  0.376008  0.704708  1
  O  O609  1  0.268094  0.499983  0.698959  1
  O  O610  1  0.042733  0.197418  0.671408  1
  O  O611  1  0.287307  0.123592  0.701447  1
  O  O612  1  0.212780  0.195289  0.709137  1
  O  O613  1  0.293362  0.250621  0.702987  1
  O  O614  1  0.154271  0.197878  0.739966  1
  O  O615  1  0.123709  0.206504  0.697344  1
  O  O616  1  0.105660  0.904990  0.580015  1
  O  O617  1  0.045872  0.911194  0.609841  1
  O  O618  1  0.109184  0.000000  0.608198  1
  O  O619  1  0.130010  0.876180  0.620294  1
  O  O620  1  0.293649  0.594316  0.637722  1
  O  O621  1  0.104789  0.693848  0.580651  1
  O  O622  1  0.200674  0.800285  0.635281  1
  O  O623  1  0.295959  0.797591  0.638463  1
  O  O624  1  0.247258  0.801438  0.671641  1
  O  O625  1  0.246298  0.697075  0.648955  1
  O  O626  1  0.046243  0.697482  0.611884  1
  O  O627  1  0.125830  0.749820  0.617542  1
  O  O628  1  0.123510  0.804400  0.654945  1
  O  O629  1  0.119280  0.623669  0.616641  1
  O  O630  1  0.123890  0.592688  0.656666  1
  O  O631  1  0.199328  0.594495  0.636247  1
  O  O632  1  0.246984  0.592999  0.671959  1
  O  O633  1  0.168989  0.700280  0.716904  1
  O  O634  1  0.211094  0.593371  0.708765  1
  O  O635  1  0.153543  0.596820  0.739805  1
  O  O636  1  0.122452  0.607305  0.698016  1
  O  O637  1  0.041983  0.596917  0.672223  1
  O  O638  1  0.095042  0.700087  0.672151  1
  O  O639  1  0.299020  0.623957  0.704710  1
  O  O640  1  0.042739  0.802565  0.671409  1
  O  O641  1  0.287312  0.876372  0.701448  1
  O  O642  1  0.212786  0.804678  0.709139  1
  O  O643  1  0.293368  0.749343  0.702988  1
  O  O644  1  0.154272  0.802095  0.739966  1
  O  O645  1  0.123716  0.793473  0.697343  1
  O  O646  1  0.318213  0.000000  0.707856  1
  O  O647  1  0.455135  0.399948  0.606395  1
  O  O648  1  0.403451  0.298865  0.597071  1
  O  O649  1  0.368622  0.402681  0.614903  1
  O  O650  1  0.605660  0.404981  0.580012  1
  O  O651  1  0.368312  0.306931  0.690551  1
  O  O652  1  0.373297  0.250295  0.653538  1
  O  O653  1  0.373178  0.377022  0.655394  1
  O  O654  1  0.446806  0.310540  0.667981  1
  O  O655  1  0.545865  0.411185  0.609836  1
  O  O656  1  0.630002  0.376171  0.620292  1
  O  O657  1  0.355656  0.499981  0.641519  1
  O  O658  1  0.370162  0.197437  0.615588  1
  O  O659  1  0.604792  0.193842  0.580648  1
  O  O660  1  0.455403  0.199257  0.606670  1
  O  O661  1  0.546238  0.197473  0.611880  1
  O  O662  1  0.494749  0.251176  0.640100  1
  O  O663  1  0.496481  0.124245  0.636756  1
  O  O664  1  0.625826  0.249811  0.617540  1
  O  O665  1  0.623505  0.304391  0.654943  1
  O  O666  1  0.619276  0.123661  0.616638  1
  O  O667  1  0.499145  0.377280  0.642614  1
  O  O668  1  0.369957  0.089686  0.691416  1
  O  O669  1  0.447140  0.088815  0.668122  1
  O  O670  1  0.366406  0.124725  0.650918  1
  O  O671  1  0.623887  0.092680  0.656662  1
  O  O672  1  0.346549  0.096817  0.732730  1
  O  O673  1  0.653541  0.096818  0.739802  1
  O  O674  1  0.622447  0.107299  0.698013  1
  O  O675  1  0.541979  0.096906  0.672219  1
  O  O676  1  0.595036  0.200078  0.672148  1
  O  O677  1  0.542734  0.302557  0.671406  1
  O  O678  1  0.345821  0.302087  0.732567  1
  O  O679  1  0.654270  0.302091  0.739965  1
  O  O680  1  0.623708  0.293467  0.697341  1
  O  O681  1  0.609181  0.499981  0.608195  1
  O  O682  1  0.493978  0.499981  0.626533  1
  O  O683  1  0.455139  0.600016  0.606396  1
  O  O684  1  0.403452  0.701095  0.597071  1
  O  O685  1  0.368626  0.597282  0.614905  1
  O  O686  1  0.605659  0.594982  0.580012  1
  O  O687  1  0.368318  0.693027  0.690554  1
  O  O688  1  0.373302  0.749663  0.653540  1
  O  O689  1  0.373183  0.622936  0.655396  1
  O  O690  1  0.446811  0.689418  0.667983  1
  O  O691  1  0.545870  0.588779  0.609838  1
  O  O692  1  0.630006  0.623791  0.620293  1
  O  O693  1  0.370169  0.802522  0.615591  1
  O  O694  1  0.604791  0.806119  0.580648  1
  O  O695  1  0.455408  0.800698  0.606671  1
  O  O696  1  0.546243  0.802486  0.611882  1
  O  O697  1  0.494752  0.748783  0.640102  1
  O  O698  1  0.496482  0.875714  0.636756  1
  O  O699  1  0.625831  0.750150  0.617540  1
  O  O700  1  0.623510  0.695571  0.654943  1
  O  O701  1  0.619280  0.876301  0.616638  1
  O  O702  1  0.499148  0.622679  0.642616  1
  O  O703  1  0.369961  0.910280  0.691419  1
  O  O704  1  0.447144  0.911148  0.668123  1
  O  O705  1  0.366411  0.875232  0.650921  1
  O  O706  1  0.383531  -0.000000  0.663149  1
  O  O707  1  0.623890  0.907283  0.656662  1
  O  O708  1  0.638187  0.000000  0.629614  1
  O  O709  1  0.653541  0.903154  0.739801  1
  O  O710  1  0.346551  0.903153  0.732733  1
  O  O711  1  0.622450  0.892668  0.698012  1
  O  O712  1  0.541982  0.903057  0.672219  1
  O  O713  1  0.595040  0.799885  0.672148  1
  O  O714  1  0.499960  -0.000000  0.651758  1
  O  O715  1  0.542740  0.697404  0.671407  1
  O  O716  1  0.654271  0.697880  0.739965  1
  O  O717  1  0.345820  0.697876  0.732570  1
  O  O718  1  0.623715  0.706500  0.697341  1
  O  O719  1  0.955137  0.100018  0.606396  1
  O  O720  1  0.903465  0.201108  0.597070  1
  O  O721  1  0.868624  0.097300  0.614903  1
  O  O722  1  0.868311  0.193037  0.690551  1
  O  O723  1  0.873296  0.249676  0.653538  1
  O  O724  1  0.873178  0.122949  0.655394  1
  O  O725  1  0.946805  0.189432  0.667982  1
  O  O726  1  0.793646  0.094321  0.637719  1
  O  O727  1  0.870162  0.302527  0.615588  1
  O  O728  1  0.955403  0.300728  0.606672  1
  O  O729  1  0.700668  0.300284  0.635278  1
  O  O730  1  0.795954  0.297604  0.638461  1
  O  O731  1  0.747252  0.301441  0.671638  1
  O  O732  1  0.746296  0.197080  0.648951  1
  O  O733  1  0.994748  0.248798  0.640102  1
  O  O734  1  0.869954  0.410286  0.691416  1
  O  O735  1  0.947140  0.411158  0.668124  1
  O  O736  1  0.866409  0.375246  0.650917  1
  O  O737  1  0.699325  0.094496  0.636243  1
  O  O738  1  0.746982  0.093004  0.671955  1
  O  O739  1  0.668984  0.200277  0.716901  1
  O  O740  1  0.711090  0.093371  0.708761  1
  O  O741  1  0.846548  0.403153  0.732729  1
  O  O742  1  0.799016  0.123964  0.704707  1
  O  O743  1  0.818210  0.499989  0.707855  1
  O  O744  1  0.787305  0.376379  0.701446  1
  O  O745  1  0.712779  0.304680  0.709136  1
  O  O746  1  0.793363  0.249351  0.702987  1
  O  O747  1  0.845820  0.197881  0.732567  1
  O  O748  1  0.996484  0.375729  0.636760  1
  O  O749  1  0.000000  0.122694  0.642616  1
  O  O750  1  0.883531  0.499992  0.663148  1
  O  O751  1  0.000000  0.499992  0.651763  1
  O  O752  1  0.955142  0.899959  0.606398  1
  O  O753  1  0.903464  0.798875  0.597071  1
  O  O754  1  0.868629  0.902684  0.614905  1
  O  O755  1  0.868316  0.806948  0.690554  1
  O  O756  1  0.873301  0.750311  0.653541  1
  O  O757  1  0.873182  0.877037  0.655396  1
  O  O758  1  0.946810  0.810553  0.667984  1
  O  O759  1  0.793650  0.905655  0.637720  1
  O  O760  1  0.870168  0.697455  0.615591  1
  O  O761  1  0.955408  0.699263  0.606673  1
  O  O762  1  0.700674  0.699682  0.635279  1
  O  O763  1  0.795959  0.702378  0.638463  1
  O  O764  1  0.747257  0.698537  0.671639  1
  O  O765  1  0.746297  0.802896  0.648951  1
  O  O766  1  0.994751  0.751187  0.640104  1
  O  O767  1  0.869958  0.589692  0.691418  1
  O  O768  1  0.947143  0.588824  0.668126  1
  O  O769  1  0.866413  0.624740  0.650920  1
  O  O770  1  -0.000000  0.877290  0.642618  1
  O  O771  1  0.699329  0.905478  0.636243  1
  O  O772  1  0.746984  0.906970  0.671956  1
  O  O773  1  0.668987  0.799694  0.716901  1
  O  O774  1  0.711091  0.906603  0.708762  1
  O  O775  1  0.846549  0.596820  0.732731  1
  O  O776  1  0.799018  0.876016  0.704709  1
  O  O777  1  0.787310  0.623600  0.701447  1
  O  O778  1  0.712785  0.695296  0.709137  1
  O  O779  1  0.793368  0.750629  0.702988  1
  O  O780  1  0.845820  0.802099  0.732570  1
  O  O781  1  0.996485  0.624256  0.636760  1
  O  O782  1  0.768092  -0.000000  0.698955  1
  O  O783  1  0.855657  -0.000000  0.641517  1
  O  O784  1  0.993982  -0.000000  0.626536  1
  Si  Si785  1  0.252460  0.275408  0.188851  1
  Si  Si786  1  0.004540  0.188612  0.179922  1
  Si  Si787  1  0.109277  0.188287  0.168793  1
  Si  Si788  1  0.001416  0.308045  0.212832  1
  Si  Si789  1  0.095726  0.123015  0.238314  1
  Si  Si790  1  0.108412  0.422871  0.167968  1
  Si  Si791  1  0.253116  0.118808  0.188486  1
  Si  Si792  1  0.152048  0.077465  0.199137  1
  Si  Si793  1  0.171261  0.190135  0.128793  1
  Si  Si794  1  0.243036  0.077160  0.139775  1
  Si  Si795  1  0.095564  0.279396  0.238657  1
  Si  Si796  1  0.169403  0.422711  0.128007  1
  Si  Si797  1  0.240491  0.309106  0.139812  1
  Si  Si798  1  0.148952  0.307764  0.197279  1
  Si  Si799  1  0.001586  0.077408  0.214794  1
  Si  Si800  1  0.003767  0.422745  0.178985  1
  Si  Si801  1  0.252457  0.724564  0.188853  1
  Si  Si802  1  0.003766  0.577236  0.178986  1
  Si  Si803  1  0.001583  0.922573  0.214795  1
  Si  Si804  1  0.004536  0.811368  0.179923  1
  Si  Si805  1  0.109273  0.811692  0.168793  1
  Si  Si806  1  0.001412  0.691935  0.212833  1
  Si  Si807  1  0.095723  0.876967  0.238315  1
  Si  Si808  1  0.171258  0.809839  0.128794  1
  Si  Si809  1  0.108410  0.577107  0.167968  1
  Si  Si810  1  0.253113  0.881164  0.188487  1
  Si  Si811  1  0.152046  0.922512  0.199138  1
  Si  Si812  1  0.095560  0.720585  0.238658  1
  Si  Si813  1  0.243035  0.922811  0.139776  1
  Si  Si814  1  0.169401  0.577262  0.128007  1
  Si  Si815  1  0.240487  0.690867  0.139814  1
  Si  Si816  1  0.148947  0.692215  0.197279  1
  Si  Si817  1  0.609277  0.311683  0.168790  1
  Si  Si818  1  0.501417  0.191929  0.212831  1
  Si  Si819  1  0.354637  0.309083  0.204394  1
  Si  Si820  1  0.595728  0.376959  0.238312  1
  Si  Si821  1  0.400952  0.189898  0.230454  1
  Si  Si822  1  0.501585  0.422564  0.214793  1
  Si  Si823  1  0.608411  0.077100  0.167965  1
  Si  Si824  1  0.355059  0.077009  0.202355  1
  Si  Si825  1  0.400911  0.423019  0.231859  1
  Si  Si826  1  0.652050  0.422506  0.199134  1
  Si  Si827  1  0.405328  0.122423  0.160998  1
  Si  Si828  1  0.503768  0.077226  0.178985  1
  Si  Si829  1  0.504540  0.311361  0.179921  1
  Si  Si830  1  0.648952  0.192206  0.197276  1
  Si  Si831  1  0.336812  0.278225  0.120534  1
  Si  Si832  1  0.404166  0.278074  0.161647  1
  Si  Si833  1  0.595567  0.220577  0.238655  1
  Si  Si834  1  0.337083  0.122504  0.120314  1
  Si  Si835  1  0.337083  0.877463  0.120315  1
  Si  Si836  1  0.595564  0.779384  0.238655  1
  Si  Si837  1  0.404161  0.721888  0.161650  1
  Si  Si838  1  0.609273  0.688281  0.168790  1
  Si  Si839  1  0.501414  0.808034  0.212832  1
  Si  Si840  1  0.354632  0.690881  0.204397  1
  Si  Si841  1  0.595725  0.623003  0.238312  1
  Si  Si842  1  0.400948  0.810067  0.230456  1
  Si  Si843  1  0.501583  0.577399  0.214794  1
  Si  Si844  1  0.608409  0.922864  0.167965  1
  Si  Si845  1  0.355057  0.922958  0.202357  1
  Si  Si846  1  0.400909  0.576942  0.231861  1
  Si  Si847  1  0.652047  0.577459  0.199134  1
  Si  Si848  1  0.405326  0.877539  0.161000  1
  Si  Si849  1  0.503767  0.922735  0.178986  1
  Si  Si850  1  0.504536  0.688602  0.179921  1
  Si  Si851  1  0.648948  0.807758  0.197276  1
  Si  Si852  1  0.336809  0.721742  0.120536  1
  Si  Si853  1  0.752460  0.224560  0.188849  1
  Si  Si854  1  0.669401  0.077260  0.128003  1
  Si  Si855  1  0.671261  0.309836  0.128791  1
  Si  Si856  1  0.854637  0.190888  0.204395  1
  Si  Si857  1  0.900950  0.310074  0.230455  1
  Si  Si858  1  0.855058  0.422963  0.202354  1
  Si  Si859  1  0.900912  0.076953  0.231860  1
  Si  Si860  1  0.753116  0.381161  0.188483  1
  Si  Si861  1  0.837083  0.377465  0.120313  1
  Si  Si862  1  0.905328  0.377547  0.160997  1
  Si  Si863  1  0.743035  0.422811  0.139773  1
  Si  Si864  1  0.904166  0.221896  0.161647  1
  Si  Si865  1  0.740490  0.190863  0.139810  1
  Si  Si866  1  0.836813  0.221744  0.120533  1
  Si  Si867  1  0.671258  0.690134  0.128792  1
  Si  Si868  1  0.669399  0.922710  0.128003  1
  Si  Si869  1  0.752458  0.775411  0.188851  1
  Si  Si870  1  0.854632  0.809092  0.204397  1
  Si  Si871  1  0.900946  0.689904  0.230456  1
  Si  Si872  1  0.855056  0.577014  0.202356  1
  Si  Si873  1  0.900910  0.923030  0.231861  1
  Si  Si874  1  0.753113  0.618810  0.188484  1
  Si  Si875  1  0.837082  0.622511  0.120314  1
  Si  Si876  1  0.905325  0.622434  0.160999  1
  Si  Si877  1  0.743034  0.577161  0.139773  1
  Si  Si878  1  0.904161  0.778085  0.161650  1
  Si  Si879  1  0.836811  0.778232  0.120535  1
  Si  Si880  1  0.740487  0.809107  0.139811  1
  Si  Si881  1  0.252460  0.275408  0.506897  1
  Si  Si882  1  0.004540  0.188612  0.497968  1
  Si  Si883  1  0.109277  0.188287  0.486838  1
  Si  Si884  1  0.001416  0.308045  0.530877  1
  Si  Si885  1  0.145454  0.190890  0.314002  1
  Si  Si886  1  0.095726  0.123015  0.556360  1
  Si  Si887  1  0.099140  0.310078  0.287942  1
  Si  Si888  1  0.247631  0.224562  0.329546  1
  Si  Si889  1  0.108412  0.422871  0.486014  1
  Si  Si890  1  0.145033  0.422964  0.316044  1
  Si  Si891  1  0.099180  0.076953  0.286537  1
  Si  Si892  1  0.246975  0.381162  0.329913  1
  Si  Si893  1  0.253116  0.118808  0.506531  1
  Si  Si894  1  0.152048  0.077465  0.517183  1
  Si  Si895  1  0.163010  0.377463  0.398085  1
  Si  Si896  1  0.171261  0.190135  0.446839  1
  Si  Si897  1  0.094764  0.377548  0.357401  1
  Si  Si898  1  0.243036  0.077160  0.457820  1
  Si  Si899  1  0.257057  0.422809  0.378624  1
  Si  Si900  1  0.095564  0.279396  0.556703  1
  Si  Si901  1  0.169403  0.422711  0.446053  1
  Si  Si902  1  0.240491  0.309106  0.457857  1
  Si  Si903  1  0.259600  0.190861  0.378585  1
  Si  Si904  1  0.148952  0.307764  0.515325  1
  Si  Si905  1  0.163279  0.221742  0.397863  1
  Si  Si906  1  0.095925  0.221897  0.356750  1
  Si  Si907  1  0.330690  0.077258  0.390391  1
  Si  Si908  1  0.328831  0.309832  0.389604  1
  Si  Si909  1  0.001586  0.077408  0.532840  1
  Si  Si910  1  0.003767  0.422745  0.497031  1
  Si  Si911  1  0.247635  0.775407  0.329547  1
  Si  Si912  1  0.252457  0.724564  0.506899  1
  Si  Si913  1  0.003766  0.577236  0.497031  1
  Si  Si914  1  0.001583  0.922573  0.532841  1
  Si  Si915  1  0.004536  0.811368  0.497969  1
  Si  Si916  1  0.109273  0.811692  0.486838  1
  Si  Si917  1  0.001412  0.691935  0.530878  1
  Si  Si918  1  0.145460  0.809092  0.314002  1
  Si  Si919  1  0.095723  0.876967  0.556361  1
  Si  Si920  1  0.099144  0.689905  0.287943  1
  Si  Si921  1  0.171258  0.809839  0.446839  1
  Si  Si922  1  0.108410  0.577107  0.486014  1
  Si  Si923  1  0.145035  0.577014  0.316043  1
  Si  Si924  1  0.099184  0.923029  0.286538  1
  Si  Si925  1  0.253113  0.881164  0.506533  1
  Si  Si926  1  0.246978  0.618807  0.329914  1
  Si  Si927  1  0.152046  0.922512  0.517183  1
  Si  Si928  1  0.095560  0.720585  0.556703  1
  Si  Si929  1  0.163011  0.622509  0.398085  1
  Si  Si930  1  0.094767  0.622433  0.357400  1
  Si  Si931  1  0.257058  0.577158  0.378625  1
  Si  Si932  1  0.243035  0.922811  0.457821  1
  Si  Si933  1  0.169401  0.577262  0.446052  1
  Si  Si934  1  0.095931  0.778084  0.356750  1
  Si  Si935  1  0.259606  0.809104  0.378587  1
  Si  Si936  1  0.240487  0.690867  0.457859  1
  Si  Si937  1  0.148947  0.692215  0.515325  1
  Si  Si938  1  0.163283  0.778230  0.397864  1
  Si  Si939  1  0.328834  0.690131  0.389606  1
  Si  Si940  1  0.330693  0.922709  0.390393  1
  Si  Si941  1  0.390814  0.311680  0.349604  1
  Si  Si942  1  0.609277  0.311683  0.486836  1
  Si  Si943  1  0.501417  0.191929  0.530877  1
  Si  Si944  1  0.498675  0.191928  0.305563  1
  Si  Si945  1  0.354637  0.309083  0.522440  1
  Si  Si946  1  0.645454  0.309084  0.314000  1
  Si  Si947  1  0.404361  0.376958  0.280083  1
  Si  Si948  1  0.595728  0.376959  0.556357  1
  Si  Si949  1  0.400952  0.189898  0.548500  1
  Si  Si950  1  0.599141  0.189897  0.287940  1
  Si  Si951  1  0.501585  0.422564  0.532839  1
  Si  Si952  1  0.498504  0.422563  0.303601  1
  Si  Si953  1  0.391679  0.077099  0.350430  1
  Si  Si954  1  0.608411  0.077100  0.486011  1
  Si  Si955  1  0.355059  0.077009  0.520400  1
  Si  Si956  1  0.645033  0.077008  0.316040  1
  Si  Si957  1  0.400911  0.423019  0.549905  1
  Si  Si958  1  0.599178  0.423019  0.286535  1
  Si  Si959  1  0.348042  0.422505  0.319261  1
  Si  Si960  1  0.652050  0.422506  0.517180  1
  Si  Si961  1  0.405328  0.122423  0.479043  1
  Si  Si962  1  0.594762  0.122424  0.357397  1
  Si  Si963  1  0.503768  0.077226  0.497030  1
  Si  Si964  1  0.496322  0.077226  0.339409  1
  Si  Si965  1  0.504540  0.311361  0.497966  1
  Si  Si966  1  0.495551  0.311359  0.338473  1
  Si  Si967  1  0.351138  0.192203  0.321118  1
  Si  Si968  1  0.648952  0.192206  0.515322  1
  Si  Si969  1  0.336812  0.278225  0.438579  1
  Si  Si970  1  0.663277  0.278227  0.397861  1
  Si  Si971  1  0.404166  0.278074  0.479693  1
  Si  Si972  1  0.595925  0.278075  0.356747  1
  Si  Si973  1  0.595567  0.220577  0.556700  1
  Si  Si974  1  0.404524  0.220576  0.279740  1
  Si  Si975  1  0.663006  0.122506  0.398081  1
  Si  Si976  1  0.337083  0.122504  0.438359  1
  Si  Si977  1  0.337083  0.877463  0.438361  1
  Si  Si978  1  0.663008  0.877465  0.398081  1
  Si  Si979  1  0.595564  0.779384  0.556701  1
  Si  Si980  1  0.404528  0.779383  0.279742  1
  Si  Si981  1  0.404161  0.721888  0.479696  1
  Si  Si982  1  0.609273  0.688281  0.486836  1
  Si  Si983  1  0.390819  0.688278  0.349607  1
  Si  Si984  1  0.498679  0.808030  0.305565  1
  Si  Si985  1  0.501414  0.808034  0.530878  1
  Si  Si986  1  0.645460  0.690878  0.314000  1
  Si  Si987  1  0.354632  0.690881  0.522443  1
  Si  Si988  1  0.595725  0.623003  0.556358  1
  Si  Si989  1  0.404365  0.623002  0.280084  1
  Si  Si990  1  0.599144  0.810064  0.287941  1
  Si  Si991  1  0.400948  0.810067  0.548502  1
  Si  Si992  1  0.498508  0.577398  0.303602  1
  Si  Si993  1  0.501583  0.577399  0.532840  1
  Si  Si994  1  0.608409  0.922864  0.486010  1
  Si  Si995  1  0.391683  0.922863  0.350432  1
  Si  Si996  1  0.645035  0.922958  0.316040  1
  Si  Si997  1  0.355057  0.922958  0.520402  1
  Si  Si998  1  0.599181  0.576943  0.286536  1
  Si  Si999  1  0.400909  0.576942  0.549907  1
  Si  Si1000  1  0.652047  0.577459  0.517180  1
  Si  Si1001  1  0.348044  0.577457  0.319263  1
  Si  Si1002  1  0.594766  0.877539  0.357396  1
  Si  Si1003  1  0.405326  0.877539  0.479046  1
  Si  Si1004  1  0.496324  0.922735  0.339410  1
  Si  Si1005  1  0.503767  0.922735  0.497032  1
  Si  Si1006  1  0.495556  0.688600  0.338476  1
  Si  Si1007  1  0.504536  0.688602  0.497967  1
  Si  Si1008  1  0.648948  0.807758  0.515322  1
  Si  Si1009  1  0.351145  0.807755  0.321121  1
  Si  Si1010  1  0.663281  0.721744  0.397862  1
  Si  Si1011  1  0.336809  0.721742  0.438581  1
  Si  Si1012  1  0.595931  0.721888  0.356747  1
  Si  Si1013  1  0.747631  0.275412  0.329545  1
  Si  Si1014  1  0.752460  0.224560  0.506895  1
  Si  Si1015  1  0.669401  0.077260  0.446049  1
  Si  Si1016  1  0.671261  0.309836  0.446837  1
  Si  Si1017  1  0.995551  0.188615  0.338475  1
  Si  Si1018  1  0.996324  0.422746  0.339414  1
  Si  Si1019  1  0.890813  0.188290  0.349604  1
  Si  Si1020  1  0.998675  0.308049  0.305566  1
  Si  Si1021  1  0.854637  0.190888  0.522440  1
  Si  Si1022  1  0.904367  0.123016  0.280083  1
  Si  Si1023  1  0.900950  0.310074  0.548500  1
  Si  Si1024  1  0.828829  0.190138  0.389604  1
  Si  Si1025  1  0.891679  0.422873  0.350429  1
  Si  Si1026  1  0.855058  0.422963  0.520399  1
  Si  Si1027  1  0.900912  0.076953  0.549906  1
  Si  Si1028  1  0.753116  0.381161  0.506529  1
  Si  Si1029  1  0.746975  0.118812  0.329910  1
  Si  Si1030  1  0.848042  0.077467  0.319260  1
  Si  Si1031  1  0.837083  0.377465  0.438358  1
  Si  Si1032  1  0.904528  0.279397  0.279740  1
  Si  Si1033  1  0.905328  0.377547  0.479043  1
  Si  Si1034  1  0.757055  0.077163  0.378621  1
  Si  Si1035  1  0.743035  0.422811  0.457818  1
  Si  Si1036  1  0.830687  0.422713  0.390391  1
  Si  Si1037  1  0.904166  0.221896  0.479693  1
  Si  Si1038  1  0.759600  0.309109  0.378584  1
  Si  Si1039  1  0.740490  0.190863  0.457855  1
  Si  Si1040  1  0.851139  0.307767  0.321118  1
  Si  Si1041  1  0.836813  0.221744  0.438579  1
  Si  Si1042  1  0.998506  0.077408  0.303603  1
  Si  Si1043  1  0.671258  0.690134  0.446837  1
  Si  Si1044  1  0.669399  0.922710  0.446049  1
  Si  Si1045  1  0.752458  0.775411  0.506897  1
  Si  Si1046  1  0.747634  0.724563  0.329546  1
  Si  Si1047  1  0.828833  0.809843  0.389605  1
  Si  Si1048  1  0.890819  0.811696  0.349607  1
  Si  Si1049  1  0.998679  0.691937  0.305567  1
  Si  Si1050  1  0.854632  0.809092  0.522443  1
  Si  Si1051  1  0.904370  0.876968  0.280085  1
  Si  Si1052  1  0.900946  0.689904  0.548502  1
  Si  Si1053  1  0.904531  0.720586  0.279742  1
  Si  Si1054  1  0.891682  0.577109  0.350431  1
  Si  Si1055  1  0.855056  0.577014  0.520402  1
  Si  Si1056  1  0.900910  0.923030  0.549907  1
  Si  Si1057  1  0.746978  0.881163  0.329911  1
  Si  Si1058  1  0.753113  0.618810  0.506530  1
  Si  Si1059  1  0.848045  0.922515  0.319261  1
  Si  Si1060  1  0.830690  0.577263  0.390393  1
  Si  Si1061  1  0.837082  0.622511  0.438360  1
  Si  Si1062  1  0.905325  0.622434  0.479045  1
  Si  Si1063  1  0.743034  0.577161  0.457819  1
  Si  Si1064  1  0.757056  0.922814  0.378622  1
  Si  Si1065  1  0.904161  0.778085  0.479696  1
  Si  Si1066  1  0.836811  0.778232  0.438581  1
  Si  Si1067  1  0.740487  0.809107  0.457857  1
  Si  Si1068  1  0.759605  0.690870  0.378585  1
  Si  Si1069  1  0.851145  0.692218  0.321121  1
  Si  Si1070  1  0.995556  0.811370  0.338477  1
  Si  Si1071  1  0.998510  0.922573  0.303605  1
  Si  Si1072  1  0.996326  0.577237  0.339414  1
  Si  Si1073  1  0.145454  0.190890  0.632048  1
  Si  Si1074  1  0.099140  0.310078  0.605988  1
  Si  Si1075  1  0.247631  0.224562  0.647592  1
  Si  Si1076  1  0.145033  0.422964  0.634090  1
  Si  Si1077  1  0.099180  0.076953  0.604583  1
  Si  Si1078  1  0.246975  0.381162  0.647959  1
  Si  Si1079  1  0.163010  0.377463  0.716131  1
  Si  Si1080  1  0.094764  0.377548  0.675447  1
  Si  Si1081  1  0.257057  0.422809  0.696670  1
  Si  Si1082  1  0.259600  0.190861  0.696631  1
  Si  Si1083  1  0.163279  0.221742  0.715909  1
  Si  Si1084  1  0.095925  0.221897  0.674795  1
  Si  Si1085  1  0.330690  0.077258  0.708437  1
  Si  Si1086  1  0.328831  0.309832  0.707650  1
  Si  Si1087  1  0.247635  0.775407  0.647593  1
  Si  Si1088  1  0.145460  0.809092  0.632048  1
  Si  Si1089  1  0.099144  0.689905  0.605989  1
  Si  Si1090  1  0.145035  0.577014  0.634089  1
  Si  Si1091  1  0.099184  0.923029  0.604584  1
  Si  Si1092  1  0.246978  0.618807  0.647960  1
  Si  Si1093  1  0.163011  0.622509  0.716131  1
  Si  Si1094  1  0.094767  0.622433  0.675446  1
  Si  Si1095  1  0.257058  0.577158  0.696671  1
  Si  Si1096  1  0.095931  0.778084  0.674795  1
  Si  Si1097  1  0.259606  0.809104  0.696633  1
  Si  Si1098  1  0.163283  0.778230  0.715910  1
  Si  Si1099  1  0.328834  0.690131  0.707652  1
  Si  Si1100  1  0.330693  0.922709  0.708439  1
  Si  Si1101  1  0.390814  0.311680  0.667650  1
  Si  Si1102  1  0.498675  0.191928  0.623609  1
  Si  Si1103  1  0.645454  0.309084  0.632046  1
  Si  Si1104  1  0.404361  0.376958  0.598129  1
  Si  Si1105  1  0.599141  0.189897  0.605986  1
  Si  Si1106  1  0.498504  0.422563  0.621646  1
  Si  Si1107  1  0.391679  0.077099  0.668476  1
  Si  Si1108  1  0.645033  0.077008  0.634086  1
  Si  Si1109  1  0.599178  0.423019  0.604580  1
  Si  Si1110  1  0.348042  0.422505  0.637306  1
  Si  Si1111  1  0.594762  0.122424  0.675443  1
  Si  Si1112  1  0.496322  0.077226  0.657455  1
  Si  Si1113  1  0.495551  0.311359  0.656519  1
  Si  Si1114  1  0.351138  0.192203  0.639164  1
  Si  Si1115  1  0.663277  0.278227  0.715907  1
  Si  Si1116  1  0.595925  0.278075  0.674793  1
  Si  Si1117  1  0.404524  0.220576  0.597786  1
  Si  Si1118  1  0.663006  0.122506  0.716127  1
  Si  Si1119  1  0.663008  0.877465  0.716127  1
  Si  Si1120  1  0.404528  0.779383  0.597787  1
  Si  Si1121  1  0.390819  0.688278  0.667653  1
  Si  Si1122  1  0.498679  0.808030  0.623611  1
  Si  Si1123  1  0.645460  0.690878  0.632046  1
  Si  Si1124  1  0.404365  0.623002  0.598130  1
  Si  Si1125  1  0.599144  0.810064  0.605987  1
  Si  Si1126  1  0.498508  0.577398  0.621648  1
  Si  Si1127  1  0.391683  0.922863  0.668477  1
  Si  Si1128  1  0.645035  0.922958  0.634086  1
  Si  Si1129  1  0.599181  0.576943  0.604581  1
  Si  Si1130  1  0.348044  0.577457  0.637308  1
  Si  Si1131  1  0.594766  0.877539  0.675442  1
  Si  Si1132  1  0.496324  0.922735  0.657456  1
  Si  Si1133  1  0.495556  0.688600  0.656521  1
  Si  Si1134  1  0.351145  0.807755  0.639167  1
  Si  Si1135  1  0.663281  0.721744  0.715908  1
  Si  Si1136  1  0.595931  0.721888  0.674793  1
  Si  Si1137  1  0.747631  0.275412  0.647590  1
  Si  Si1138  1  0.995551  0.188615  0.656521  1
  Si  Si1139  1  0.996324  0.422746  0.657460  1
  Si  Si1140  1  0.890813  0.188290  0.667650  1
  Si  Si1141  1  0.998675  0.308049  0.623612  1
  Si  Si1142  1  0.904367  0.123016  0.598129  1
  Si  Si1143  1  0.828829  0.190138  0.707650  1
  Si  Si1144  1  0.891679  0.422873  0.668475  1
  Si  Si1145  1  0.746975  0.118812  0.647956  1
  Si  Si1146  1  0.848042  0.077467  0.637305  1
  Si  Si1147  1  0.904528  0.279397  0.597786  1
  Si  Si1148  1  0.757055  0.077163  0.696667  1
  Si  Si1149  1  0.830687  0.422713  0.708436  1
  Si  Si1150  1  0.759600  0.309109  0.696630  1
  Si  Si1151  1  0.851139  0.307767  0.639164  1
  Si  Si1152  1  0.998506  0.077408  0.621649  1
  Si  Si1153  1  0.747634  0.724563  0.647591  1
  Si  Si1154  1  0.828833  0.809843  0.707651  1
  Si  Si1155  1  0.890819  0.811696  0.667653  1
  Si  Si1156  1  0.998679  0.691937  0.623613  1
  Si  Si1157  1  0.904370  0.876968  0.598130  1
  Si  Si1158  1  0.904531  0.720586  0.597788  1
  Si  Si1159  1  0.891682  0.577109  0.668477  1
  Si  Si1160  1  0.746978  0.881163  0.647956  1
  Si  Si1161  1  0.848045  0.922515  0.637307  1
  Si  Si1162  1  0.830690  0.577263  0.708438  1
  Si  Si1163  1  0.757056  0.922814  0.696667  1
  Si  Si1164  1  0.759605  0.690870  0.696631  1
  Si  Si1165  1  0.851145  0.692218  0.639166  1
  Si  Si1166  1  0.995556  0.811370  0.656523  1
  Si  Si1167  1  0.998510  0.922573  0.621650  1
  Si  Si1168  1  0.996326  0.577237  0.657460  1
  H  H1169  1  0.153544  0.403152  0.089017  1
  H  H1170  1  0.154271  0.197878  0.089178  1
  H  H1171  1  0.153543  0.596820  0.089017  1
  H  H1172  1  0.154272  0.802095  0.089178  1
  H  H1173  1  0.346549  0.096817  0.081941  1
  H  H1174  1  0.653541  0.096818  0.089013  1
  H  H1175  1  0.345821  0.302087  0.081779  1
  H  H1176  1  0.654270  0.302091  0.089176  1
  H  H1177  1  0.653541  0.903154  0.089013  1
  H  H1178  1  0.346551  0.903153  0.081944  1
  H  H1179  1  0.654271  0.697880  0.089176  1
  H  H1180  1  0.345820  0.697876  0.081782  1
  H  H1181  1  0.846548  0.403153  0.081940  1
  H  H1182  1  0.845820  0.197881  0.081779  1
  H  H1183  1  0.846549  0.596820  0.081943  1
  H  H1184  1  0.845820  0.802099  0.081781  1
  H  H1185  1  0.153544  0.403152  0.754503  1
  H  H1186  1  0.154271  0.197878  0.754664  1
  H  H1187  1  0.153543  0.596820  0.754502  1
  H  H1188  1  0.154272  0.802095  0.754664  1
  H  H1189  1  0.346549  0.096817  0.747427  1
  H  H1190  1  0.653541  0.096818  0.754499  1
  H  H1191  1  0.345821  0.302087  0.747265  1
  H  H1192  1  0.654270  0.302091  0.754662  1
  H  H1193  1  0.653541  0.903154  0.754499  1
  H  H1194  1  0.346551  0.903153  0.747430  1
  H  H1195  1  0.654271  0.697880  0.754662  1
  H  H1196  1  0.345820  0.697876  0.747268  1
  H  H1197  1  0.846548  0.403153  0.747426  1
  H  H1198  1  0.845820  0.197881  0.747265  1
  H  H1199  1  0.846549  0.596820  0.747428  1
  H  H1200  1  0.845820  0.802099  0.747267  1
