# generated using pymatgen
data_Si24H2O49
_symmetry_space_group_name_H-M   'P 1'
_cell_length_a   30.67096610
_cell_length_b   30.68027557
_cell_length_c   52.47705142
_cell_angle_alpha   90.00000000
_cell_angle_beta   90.00000000
_cell_angle_gamma   90.00000000
_symmetry_Int_Tables_number   1
_chemical_formula_structural   Si24H2O49
_chemical_formula_sum   'Si384 H32 O784'
_cell_volume   49380.5743541
_cell_formula_units_Z   16
loop_
 _symmetry_equiv_pos_site_id
 _symmetry_equiv_pos_as_xyz
  1  'x, y, z'
loop_
 _atom_site_type_symbol
 _atom_site_label
 _atom_site_symmetry_multiplicity
 _atom_site_fract_x
 _atom_site_fract_y
 _atom_site_fract_z
 _atom_site_occupancy
  O  O1  1  0.113060  0.199572  0.112434  1
  O  O2  1  0.199605  0.113068  0.112439  1
  O  O3  1  0.300476  0.387005  0.112435  1
  O  O4  1  0.886957  0.199526  0.112431  1
  O  O5  1  0.699514  0.613051  0.112430  1
  O  O6  1  0.612958  0.699560  0.112439  1
  O  O7  1  0.886970  0.800439  0.112439  1
  O  O8  1  0.150455  0.230778  0.153293  1
  O  O9  1  0.069893  0.150410  0.247310  1
  O  O10  1  0.230790  0.069888  0.200353  1
  O  O11  1  0.150414  0.269273  0.445586  1
  O  O12  1  0.150411  0.230783  0.656115  1
  O  O13  1  0.069892  0.150427  0.562108  1
  O  O14  1  0.230791  0.069907  0.609072  1
  O  O15  1  0.150410  0.269229  0.363859  1
  O  O16  1  0.069903  0.230759  0.200338  1
  O  O17  1  0.230819  0.150444  0.153300  1
  O  O18  1  0.150414  0.069895  0.247306  1
  O  O19  1  0.069871  0.269247  0.492630  1
  O  O20  1  0.430115  0.230798  0.492628  1
  O  O21  1  0.269203  0.150427  0.445571  1
  O  O22  1  0.349586  0.069951  0.539602  1
  O  O23  1  0.430124  0.269287  0.200387  1
  O  O24  1  0.349600  0.269269  0.656129  1
  O  O25  1  0.349591  0.230767  0.363876  1
  O  O26  1  0.430089  0.150454  0.269848  1
  O  O27  1  0.269202  0.069908  0.316789  1
  O  O28  1  0.349638  0.269272  0.153310  1
  O  O29  1  0.349575  0.230743  0.445582  1
  O  O30  1  0.430110  0.150449  0.539609  1
  O  O31  1  0.269217  0.069894  0.492648  1
  O  O32  1  0.430135  0.269266  0.609070  1
  O  O33  1  0.430153  0.230798  0.316821  1
  O  O34  1  0.269243  0.150437  0.363851  1
  O  O35  1  0.349589  0.069943  0.269832  1
  O  O36  1  0.069896  0.269234  0.316786  1
  O  O37  1  0.069845  0.230802  0.609072  1
  O  O38  1  0.230775  0.150470  0.656122  1
  O  O39  1  0.150397  0.069915  0.562127  1
  O  O40  1  0.211991  0.119617  0.236336  1
  O  O41  1  0.212026  0.212004  0.182369  1
  O  O42  1  0.119616  0.211978  0.236337  1
  O  O43  1  0.211991  0.288055  0.474649  1
  O  O44  1  0.119567  0.288045  0.528629  1
  O  O45  1  0.211976  0.119636  0.573088  1
  O  O46  1  0.211971  0.212020  0.627038  1
  O  O47  1  0.119579  0.212023  0.573079  1
  O  O48  1  0.211974  0.288026  0.334786  1
  O  O49  1  0.119619  0.288004  0.280791  1
  O  O50  1  0.287990  0.119653  0.528624  1
  O  O51  1  0.380399  0.212026  0.528627  1
  O  O52  1  0.287998  0.211966  0.474654  1
  O  O53  1  0.380415  0.288083  0.236387  1
  O  O54  1  0.288049  0.288054  0.182358  1
  O  O55  1  0.288022  0.288058  0.627053  1
  O  O56  1  0.380418  0.288063  0.573072  1
  O  O57  1  0.287997  0.119642  0.280801  1
  O  O58  1  0.288047  0.212003  0.334783  1
  O  O59  1  0.380398  0.212044  0.280836  1
  O  O60  1  0.208580  0.208582  0.347910  1
  O  O61  1  0.402831  0.208624  0.234389  1
  O  O62  1  0.208539  0.097166  0.526649  1
  O  O63  1  0.208552  0.291465  0.640169  1
  O  O64  1  0.402860  0.291474  0.526623  1
  O  O65  1  0.208545  0.208592  0.461528  1
  O  O66  1  0.402845  0.208604  0.575072  1
  O  O67  1  0.208547  0.097179  0.282785  1
  O  O68  1  0.208592  0.291455  0.169235  1
  O  O69  1  0.402892  0.291491  0.282830  1
  O  O70  1  0.097153  0.208579  0.526633  1
  O  O71  1  0.291437  0.208615  0.640175  1
  O  O72  1  0.291455  0.097190  0.234358  1
  O  O73  1  0.097157  0.291420  0.234344  1
  O  O74  1  0.291432  0.291445  0.347926  1
  O  O75  1  0.291441  0.097206  0.575068  1
  O  O76  1  0.291434  0.291420  0.461509  1
  O  O77  1  0.097110  0.291477  0.575069  1
  O  O78  1  0.291491  0.208593  0.169256  1
  O  O79  1  0.097166  0.208556  0.282788  1
  O  O80  1  0.148390  0.258295  0.199165  1
  O  O81  1  0.148370  0.148372  0.263398  1
  O  O82  1  0.258324  0.148376  0.199169  1
  O  O83  1  0.148367  0.241757  0.491461  1
  O  O84  1  0.148328  0.258334  0.610249  1
  O  O85  1  0.148366  0.148399  0.546027  1
  O  O86  1  0.258298  0.148402  0.610254  1
  O  O87  1  0.148369  0.241705  0.317979  1
  O  O88  1  0.351622  0.258298  0.491449  1
  O  O89  1  0.241654  0.148355  0.491443  1
  O  O90  1  0.351615  0.148431  0.555685  1
  O  O91  1  0.351645  0.241785  0.199200  1
  O  O92  1  0.351643  0.241766  0.610251  1
  O  O93  1  0.351681  0.258352  0.318018  1
  O  O94  1  0.351609  0.148440  0.253761  1
  O  O95  1  0.241704  0.148394  0.317976  1
  O  O96  1  0.150092  0.055577  0.200142  1
  O  O97  1  0.150130  0.150099  0.144919  1
  O  O98  1  0.055582  0.150075  0.200140  1
  O  O99  1  0.150098  0.055588  0.609292  1
  O  O100  1  0.150091  0.150093  0.664496  1
  O  O101  1  0.055551  0.150115  0.609273  1
  O  O102  1  0.349919  0.055618  0.492441  1
  O  O103  1  0.444444  0.150114  0.492444  1
  O  O104  1  0.349904  0.150071  0.437203  1
  O  O105  1  0.349888  0.055594  0.316996  1
  O  O106  1  0.349928  0.150075  0.372235  1
  O  O107  1  0.444439  0.150105  0.317010  1
  O  O108  1  0.079168  0.188698  0.158677  1
  O  O109  1  0.079135  0.079132  0.222713  1
  O  O110  1  0.188747  0.079149  0.158684  1
  O  O111  1  0.079128  0.311331  0.450968  1
  O  O112  1  0.079124  0.188723  0.650736  1
  O  O113  1  0.079138  0.079166  0.586728  1
  O  O114  1  0.188754  0.079150  0.650746  1
  O  O115  1  0.079133  0.311296  0.358459  1
  O  O116  1  0.420868  0.188694  0.450975  1
  O  O117  1  0.311267  0.079150  0.450971  1
  O  O118  1  0.420869  0.079176  0.515014  1
  O  O119  1  0.420904  0.311345  0.158708  1
  O  O120  1  0.420893  0.311325  0.650738  1
  O  O121  1  0.420884  0.188711  0.358479  1
  O  O122  1  0.420849  0.079170  0.294438  1
  O  O123  1  0.311269  0.079142  0.358461  1
  O  O124  1  0.000000  0.113032  0.229060  1
  O  O125  1  0.113060  0.199572  0.696977  1
  O  O126  1  0.113026  0.300452  0.404721  1
  O  O127  1  0.199579  0.000000  0.630936  1
  O  O128  1  0.199553  -0.000000  0.178486  1
  O  O129  1  0.113022  -0.000000  0.229062  1
  O  O130  1  0.113001  -0.000000  0.580382  1
  O  O131  1  0.199605  0.113068  0.696982  1
  O  O132  1  0.300426  0.113036  0.404713  1
  O  O133  1  0.387009  0.300478  0.112447  1
  O  O134  1  0.386976  0.199539  0.404726  1
  O  O135  1  0.386980  -0.000000  0.521364  1
  O  O136  1  0.300479  -0.000000  0.470778  1
  O  O137  1  0.300409  -0.000000  0.338658  1
  O  O138  1  0.386957  0.000000  0.288086  1
  O  O139  1  0.000000  0.113031  0.580349  1
  O  O140  1  -0.000000  0.300476  0.338646  1
  O  O141  1  0.499985  0.113047  0.288082  1
  O  O142  1  -0.000000  0.199546  0.178469  1
  O  O143  1  0.069808  0.650386  0.539627  1
  O  O144  1  0.230718  0.569923  0.492670  1
  O  O145  1  0.069852  0.349628  0.539596  1
  O  O146  1  0.230783  0.430127  0.492633  1
  O  O147  1  0.069897  0.650429  0.269850  1
  O  O148  1  0.230734  0.569862  0.316802  1
  O  O149  1  0.069882  0.349565  0.269811  1
  O  O150  1  0.230733  0.430087  0.316780  1
  O  O151  1  0.230765  0.650423  0.445585  1
  O  O152  1  0.150360  0.569876  0.539623  1
  O  O153  1  0.230780  0.349596  0.445558  1
  O  O154  1  0.150411  0.430094  0.539579  1
  O  O155  1  0.269244  0.650434  0.153324  1
  O  O156  1  0.349599  0.569911  0.247349  1
  O  O157  1  0.269268  0.349616  0.153286  1
  O  O158  1  0.349603  0.430148  0.247337  1
  O  O159  1  0.430150  0.349620  0.562100  1
  O  O160  1  0.269236  0.430121  0.609046  1
  O  O161  1  0.430041  0.650437  0.562113  1
  O  O162  1  0.269190  0.569885  0.609090  1
  O  O163  1  0.430155  0.349642  0.247354  1
  O  O164  1  0.269275  0.430114  0.200366  1
  O  O165  1  0.430093  0.650434  0.247353  1
  O  O166  1  0.269236  0.569893  0.200382  1
  O  O167  1  0.269234  0.349604  0.656123  1
  O  O168  1  0.349616  0.430125  0.562098  1
  O  O169  1  0.269211  0.650404  0.656156  1
  O  O170  1  0.349535  0.569906  0.562112  1
  O  O171  1  0.230755  0.349596  0.363851  1
  O  O172  1  0.150413  0.430092  0.269795  1
  O  O173  1  0.230759  0.650337  0.363888  1
  O  O174  1  0.150391  0.569890  0.269829  1
  O  O175  1  0.211907  0.619645  0.528658  1
  O  O176  1  0.211997  0.380373  0.528608  1
  O  O177  1  0.211972  0.619608  0.280824  1
  O  O178  1  0.211977  0.380357  0.280786  1
  O  O179  1  0.288015  0.619618  0.236377  1
  O  O180  1  0.288062  0.380387  0.236357  1
  O  O181  1  0.288034  0.380395  0.573062  1
  O  O182  1  0.287961  0.619623  0.573103  1
  O  O183  1  0.208588  0.402818  0.234346  1
  O  O184  1  0.208561  0.597162  0.234376  1
  O  O185  1  0.208567  0.402837  0.575046  1
  O  O186  1  0.208504  0.597154  0.575098  1
  O  O187  1  0.291461  0.402860  0.526624  1
  O  O188  1  0.291371  0.597200  0.526659  1
  O  O189  1  0.291429  0.597150  0.282818  1
  O  O190  1  0.291429  0.402855  0.282796  1
  O  O191  1  0.148279  0.648338  0.555733  1
  O  O192  1  0.258239  0.648406  0.491472  1
  O  O193  1  0.148353  0.351638  0.555679  1
  O  O194  1  0.258338  0.351662  0.491427  1
  O  O195  1  0.148370  0.648372  0.253752  1
  O  O196  1  0.258294  0.648326  0.318017  1
  O  O197  1  0.148367  0.351611  0.253714  1
  O  O198  1  0.258290  0.351623  0.317976  1
  O  O199  1  0.241715  0.648374  0.199197  1
  O  O200  1  0.351615  0.648385  0.263449  1
  O  O201  1  0.241752  0.351645  0.199163  1
  O  O202  1  0.351680  0.351689  0.263454  1
  O  O203  1  0.351669  0.351664  0.546000  1
  O  O204  1  0.241708  0.351652  0.610241  1
  O  O205  1  0.351562  0.648403  0.546031  1
  O  O206  1  0.241663  0.648358  0.610285  1
  O  O207  1  0.150035  0.555575  0.492455  1
  O  O208  1  0.150081  0.650068  0.437223  1
  O  O209  1  0.055516  0.650040  0.492461  1
  O  O210  1  0.150083  0.444432  0.492420  1
  O  O211  1  0.150085  0.349953  0.437197  1
  O  O212  1  0.055539  0.349934  0.492429  1
  O  O213  1  0.150037  0.555543  0.316989  1
  O  O214  1  0.150064  0.650030  0.372257  1
  O  O215  1  0.055580  0.650075  0.317013  1
  O  O216  1  0.150048  0.444408  0.316962  1
  O  O217  1  0.150068  0.349909  0.372235  1
  O  O218  1  0.055584  0.349922  0.316980  1
  O  O219  1  0.349925  0.555594  0.200181  1
  O  O220  1  0.444431  0.650132  0.200188  1
  O  O221  1  0.349931  0.650093  0.144951  1
  O  O222  1  0.349959  0.444454  0.200168  1
  O  O223  1  0.444456  0.349966  0.200182  1
  O  O224  1  0.349960  0.349957  0.144921  1
  O  O225  1  0.349932  0.444437  0.609262  1
  O  O226  1  0.349937  0.349940  0.664500  1
  O  O227  1  0.444467  0.349945  0.609272  1
  O  O228  1  0.349881  0.555572  0.609276  1
  O  O229  1  0.349905  0.650078  0.664527  1
  O  O230  1  0.444372  0.650090  0.609276  1
  O  O231  1  0.079068  0.579102  0.515038  1
  O  O232  1  0.188692  0.579139  0.450994  1
  O  O233  1  0.079119  0.420875  0.514986  1
  O  O234  1  0.188738  0.420894  0.450957  1
  O  O235  1  0.079104  0.579122  0.294417  1
  O  O236  1  0.188657  0.579080  0.358471  1
  O  O237  1  0.079123  0.420857  0.294382  1
  O  O238  1  0.188650  0.420848  0.358443  1
  O  O239  1  0.311301  0.579148  0.158714  1
  O  O240  1  0.420869  0.579172  0.222747  1
  O  O241  1  0.311335  0.420894  0.158693  1
  O  O242  1  0.420898  0.420911  0.222755  1
  O  O243  1  0.420900  0.420891  0.586697  1
  O  O244  1  0.311301  0.420869  0.650720  1
  O  O245  1  0.420809  0.579152  0.586701  1
  O  O246  1  0.311281  0.579126  0.650753  1
  O  O247  1  0.199553  0.500022  0.470792  1
  O  O248  1  0.000000  0.386996  0.288062  1
  O  O249  1  0.199505  0.499969  0.338642  1
  O  O250  1  0.112999  0.499984  0.521352  1
  O  O251  1  0.199531  0.612970  0.404736  1
  O  O252  1  0.199549  0.386993  0.404705  1
  O  O253  1  0.387003  0.500034  0.229090  1
  O  O254  1  0.300446  0.613029  0.112466  1
  O  O255  1  0.300476  0.387005  0.696978  1
  O  O256  1  0.300435  0.499995  0.630931  1
  O  O257  1  0.300470  0.500012  0.178512  1
  O  O258  1  0.386973  0.500016  0.580354  1
  O  O259  1  0.112997  0.499988  0.288048  1
  O  O260  1  0.499930  0.613018  0.580347  1
  O  O261  1  0.499995  0.613070  0.229104  1
  O  O262  1  0.150382  0.730761  0.445596  1
  O  O263  1  0.150416  0.769230  0.153314  1
  O  O264  1  0.069898  0.849592  0.247360  1
  O  O265  1  0.230767  0.930127  0.200363  1
  O  O266  1  0.150434  0.730722  0.363899  1
  O  O267  1  0.150378  0.769237  0.656134  1
  O  O268  1  0.069898  0.849604  0.562101  1
  O  O269  1  0.230757  0.930105  0.609072  1
  O  O270  1  0.069861  0.730732  0.492654  1
  O  O271  1  0.069895  0.769247  0.200384  1
  O  O272  1  0.230768  0.849581  0.153307  1
  O  O273  1  0.150419  0.930129  0.247332  1
  O  O274  1  0.430109  0.730815  0.200400  1
  O  O275  1  0.430077  0.769286  0.492658  1
  O  O276  1  0.269176  0.849621  0.445589  1
  O  O277  1  0.349582  0.930164  0.539616  1
  O  O278  1  0.349577  0.769227  0.363905  1
  O  O279  1  0.430060  0.849606  0.269873  1
  O  O280  1  0.269202  0.930104  0.316817  1
  O  O281  1  0.349551  0.730765  0.656160  1
  O  O282  1  0.349543  0.769285  0.445603  1
  O  O283  1  0.430095  0.849625  0.539639  1
  O  O284  1  0.269247  0.930168  0.492643  1
  O  O285  1  0.349586  0.730780  0.153327  1
  O  O286  1  0.430111  0.769255  0.316827  1
  O  O287  1  0.269237  0.849576  0.363859  1
  O  O288  1  0.349570  0.930137  0.269843  1
  O  O289  1  0.430062  0.730780  0.609082  1
  O  O290  1  0.069872  0.769258  0.609064  1
  O  O291  1  0.230729  0.849583  0.656121  1
  O  O292  1  0.150389  0.930150  0.562109  1
  O  O293  1  0.069936  0.730764  0.316820  1
  O  O294  1  0.211960  0.712000  0.474651  1
  O  O295  1  0.119562  0.711945  0.528648  1
  O  O296  1  0.211985  0.880406  0.236362  1
  O  O297  1  0.211973  0.788032  0.182389  1
  O  O298  1  0.119620  0.788023  0.236382  1
  O  O299  1  0.212002  0.711927  0.334835  1
  O  O300  1  0.119650  0.711985  0.280828  1
  O  O301  1  0.211951  0.880407  0.573070  1
  O  O302  1  0.211941  0.788006  0.627059  1
  O  O303  1  0.119622  0.788036  0.573074  1
  O  O304  1  0.380369  0.712007  0.236385  1
  O  O305  1  0.288027  0.711993  0.182402  1
  O  O306  1  0.288008  0.880443  0.528630  1
  O  O307  1  0.380365  0.788060  0.528654  1
  O  O308  1  0.287966  0.788068  0.474669  1
  O  O309  1  0.287995  0.880410  0.280821  1
  O  O310  1  0.288039  0.787971  0.334811  1
  O  O311  1  0.380343  0.788015  0.280859  1
  O  O312  1  0.287986  0.711968  0.627087  1
  O  O313  1  0.380326  0.712016  0.573093  1
  O  O314  1  0.208551  0.902918  0.526638  1
  O  O315  1  0.208528  0.708559  0.640206  1
  O  O316  1  0.402787  0.708598  0.526651  1
  O  O317  1  0.208599  0.791395  0.347944  1
  O  O318  1  0.402810  0.791458  0.234411  1
  O  O319  1  0.208548  0.902840  0.282816  1
  O  O320  1  0.208570  0.708574  0.169271  1
  O  O321  1  0.402839  0.708570  0.282828  1
  O  O322  1  0.208511  0.791468  0.461547  1
  O  O323  1  0.402788  0.791473  0.575102  1
  O  O324  1  0.291433  0.902858  0.234370  1
  O  O325  1  0.097164  0.708578  0.234386  1
  O  O326  1  0.291444  0.708512  0.347965  1
  O  O327  1  0.097144  0.791427  0.526641  1
  O  O328  1  0.291388  0.791430  0.640200  1
  O  O329  1  0.291432  0.791442  0.169266  1
  O  O330  1  0.097213  0.791446  0.282835  1
  O  O331  1  0.291414  0.902862  0.575076  1
  O  O332  1  0.291411  0.708603  0.461544  1
  O  O333  1  0.097100  0.708578  0.575081  1
  O  O334  1  0.148342  0.758259  0.491473  1
  O  O335  1  0.148369  0.741718  0.199197  1
  O  O336  1  0.148379  0.851644  0.263432  1
  O  O337  1  0.258288  0.851651  0.199184  1
  O  O338  1  0.148416  0.758257  0.318020  1
  O  O339  1  0.148335  0.741698  0.610260  1
  O  O340  1  0.148352  0.851671  0.545991  1
  O  O341  1  0.258253  0.851614  0.610244  1
  O  O342  1  0.351632  0.758325  0.199204  1
  O  O343  1  0.351590  0.741769  0.491476  1
  O  O344  1  0.241668  0.851698  0.491459  1
  O  O345  1  0.351609  0.851677  0.555705  1
  O  O346  1  0.351661  0.741647  0.318044  1
  O  O347  1  0.351591  0.851636  0.253779  1
  O  O348  1  0.241718  0.851592  0.317989  1
  O  O349  1  0.351588  0.758298  0.610285  1
  O  O350  1  0.150082  0.944430  0.200158  1
  O  O351  1  0.150086  0.849912  0.144925  1
  O  O352  1  0.055596  0.849928  0.200188  1
  O  O353  1  0.150078  0.944452  0.609278  1
  O  O354  1  0.150047  0.849926  0.664507  1
  O  O355  1  0.055559  0.849934  0.609270  1
  O  O356  1  0.349949  0.944459  0.492446  1
  O  O357  1  0.444405  0.849976  0.492472  1
  O  O358  1  0.349862  0.849958  0.437209  1
  O  O359  1  0.349891  0.944463  0.317004  1
  O  O360  1  0.349906  0.849933  0.372252  1
  O  O361  1  0.444407  0.849962  0.317027  1
  O  O362  1  0.079120  0.688649  0.450996  1
  O  O363  1  0.079152  0.811312  0.158712  1
  O  O364  1  0.079146  0.920869  0.222751  1
  O  O365  1  0.188704  0.920864  0.158692  1
  O  O366  1  0.079139  0.688684  0.358486  1
  O  O367  1  0.079099  0.811303  0.650740  1
  O  O368  1  0.079130  0.920883  0.586707  1
  O  O369  1  0.188691  0.920876  0.650741  1
  O  O370  1  0.420871  0.688746  0.158724  1
  O  O371  1  0.420810  0.811380  0.451003  1
  O  O372  1  0.311282  0.920898  0.450973  1
  O  O373  1  0.420883  0.920924  0.515052  1
  O  O374  1  0.420854  0.811315  0.358493  1
  O  O375  1  0.420842  0.920907  0.294443  1
  O  O376  1  0.311282  0.920881  0.358473  1
  O  O377  1  0.420838  0.688713  0.650753  1
  O  O378  1  0.113009  0.699511  0.404743  1
  O  O379  1  0.113010  0.800442  0.112451  1
  O  O380  1  0.499997  0.699612  0.178526  1
  O  O381  1  0.499949  0.800508  0.470779  1
  O  O382  1  0.199554  0.886963  0.112442  1
  O  O383  1  0.300393  0.886989  0.404721  1
  O  O384  1  0.499997  0.886997  0.521385  1
  O  O385  1  0.386957  0.800483  0.404747  1
  O  O386  1  0.386970  0.699561  0.112468  1
  O  O387  1  0.499956  0.699548  0.630926  1
  O  O388  1  0.000000  0.699583  0.338660  1
  O  O389  1  -0.000000  0.887009  0.229090  1
  O  O390  1  0.499966  0.887016  0.288085  1
  O  O391  1  -0.000000  0.886992  0.580344  1
  O  O392  1  -0.000000  0.800490  0.178506  1
  O  O393  1  0.499989  0.800496  0.338673  1
  O  O394  1  0.650446  0.230737  0.445594  1
  O  O395  1  0.569910  0.150403  0.539618  1
  O  O396  1  0.730788  0.069862  0.492644  1
  O  O397  1  0.650451  0.269276  0.153324  1
  O  O398  1  0.650430  0.230778  0.363869  1
  O  O399  1  0.569878  0.150440  0.269830  1
  O  O400  1  0.730768  0.069916  0.316799  1
  O  O401  1  0.650440  0.269239  0.656148  1
  O  O402  1  0.569912  0.230768  0.492649  1
  O  O403  1  0.730796  0.150399  0.445577  1
  O  O404  1  0.650412  0.069883  0.539596  1
  O  O405  1  0.569919  0.269284  0.200383  1
  O  O406  1  0.930157  0.230800  0.200347  1
  O  O407  1  0.769246  0.150444  0.153326  1
  O  O408  1  0.849620  0.069933  0.247353  1
  O  O409  1  0.930103  0.269254  0.492636  1
  O  O410  1  0.849604  0.269289  0.363847  1
  O  O411  1  0.849552  0.230709  0.656115  1
  O  O412  1  0.930107  0.150410  0.562090  1
  O  O413  1  0.769243  0.069825  0.609076  1
  O  O414  1  0.849593  0.269249  0.445552  1
  O  O415  1  0.849596  0.230789  0.153284  1
  O  O416  1  0.930135  0.150459  0.247317  1
  O  O417  1  0.769242  0.069933  0.200392  1
  O  O418  1  0.930119  0.269285  0.316785  1
  O  O419  1  0.930086  0.230768  0.609067  1
  O  O420  1  0.769198  0.150375  0.656138  1
  O  O421  1  0.849613  0.069880  0.562124  1
  O  O422  1  0.569916  0.269227  0.609079  1
  O  O423  1  0.569906  0.230781  0.316808  1
  O  O424  1  0.730792  0.150431  0.363875  1
  O  O425  1  0.650419  0.069929  0.269837  1
  O  O426  1  0.712014  0.119591  0.528628  1
  O  O427  1  0.712025  0.211943  0.474661  1
  O  O428  1  0.619638  0.211962  0.528643  1
  O  O429  1  0.712020  0.288069  0.182396  1
  O  O430  1  0.619645  0.288067  0.236377  1
  O  O431  1  0.711994  0.119660  0.280822  1
  O  O432  1  0.712003  0.211995  0.334805  1
  O  O433  1  0.619612  0.212007  0.280811  1
  O  O434  1  0.711995  0.288027  0.627070  1
  O  O435  1  0.619648  0.288007  0.573086  1
  O  O436  1  0.788050  0.119657  0.236383  1
  O  O437  1  0.880418  0.212031  0.236339  1
  O  O438  1  0.788068  0.212034  0.182379  1
  O  O439  1  0.880368  0.288032  0.528625  1
  O  O440  1  0.788038  0.288013  0.474633  1
  O  O441  1  0.788027  0.288052  0.334780  1
  O  O442  1  0.880387  0.288068  0.280792  1
  O  O443  1  0.788021  0.119576  0.573096  1
  O  O444  1  0.787990  0.211924  0.627048  1
  O  O445  1  0.880383  0.211985  0.573067  1
  O  O446  1  0.708559  0.208546  0.640191  1
  O  O447  1  0.902821  0.208566  0.526626  1
  O  O448  1  0.708582  0.097218  0.234382  1
  O  O449  1  0.708574  0.291455  0.347914  1
  O  O450  1  0.902866  0.291488  0.234348  1
  O  O451  1  0.708605  0.208613  0.169273  1
  O  O452  1  0.902868  0.208623  0.282784  1
  O  O453  1  0.708574  0.097097  0.575067  1
  O  O454  1  0.708584  0.291408  0.461534  1
  O  O455  1  0.902824  0.291447  0.575067  1
  O  O456  1  0.597175  0.208606  0.234370  1
  O  O457  1  0.791463  0.208602  0.347921  1
  O  O458  1  0.791463  0.097122  0.526650  1
  O  O459  1  0.597205  0.291429  0.526644  1
  O  O460  1  0.791431  0.291397  0.640185  1
  O  O461  1  0.791467  0.097206  0.282820  1
  O  O462  1  0.791469  0.291493  0.169254  1
  O  O463  1  0.597184  0.291474  0.282817  1
  O  O464  1  0.791465  0.208550  0.461510  1
  O  O465  1  0.597197  0.208545  0.575086  1
  O  O466  1  0.648409  0.258252  0.491469  1
  O  O467  1  0.648401  0.148347  0.555701  1
  O  O468  1  0.758355  0.148325  0.491448  1
  O  O469  1  0.648403  0.241760  0.199198  1
  O  O470  1  0.648389  0.258291  0.317990  1
  O  O471  1  0.648369  0.148404  0.253750  1
  O  O472  1  0.758316  0.148390  0.318005  1
  O  O473  1  0.648390  0.241713  0.610269  1
  O  O474  1  0.851694  0.258347  0.199154  1
  O  O475  1  0.741761  0.148432  0.199208  1
  O  O476  1  0.851666  0.148422  0.263429  1
  O  O477  1  0.851643  0.241717  0.491433  1
  O  O478  1  0.851645  0.241748  0.317975  1
  O  O479  1  0.851601  0.258261  0.610243  1
  O  O480  1  0.851623  0.148361  0.546021  1
  O  O481  1  0.741669  0.148293  0.610269  1
  O  O482  1  0.650080  0.055580  0.492434  1
  O  O483  1  0.650097  0.150066  0.437207  1
  O  O484  1  0.555568  0.150095  0.492448  1
  O  O485  1  0.650067  0.055599  0.316997  1
  O  O486  1  0.650101  0.150093  0.372245  1
  O  O487  1  0.555579  0.150090  0.316997  1
  O  O488  1  0.849921  0.055599  0.200185  1
  O  O489  1  0.944440  0.150108  0.200148  1
  O  O490  1  0.849919  0.150085  0.144930  1
  O  O491  1  0.849944  0.055555  0.609292  1
  O  O492  1  0.849882  0.150028  0.664510  1
  O  O493  1  0.944426  0.150084  0.609255  1
  O  O494  1  0.579150  0.188696  0.450982  1
  O  O495  1  0.579126  0.079144  0.515008  1
  O  O496  1  0.688727  0.079127  0.450972  1
  O  O497  1  0.579156  0.311331  0.158713  1
  O  O498  1  0.579159  0.188698  0.358471  1
  O  O499  1  0.579118  0.079154  0.294414  1
  O  O500  1  0.688706  0.079152  0.358464  1
  O  O501  1  0.579162  0.311298  0.650751  1
  O  O502  1  0.920872  0.188719  0.158681  1
  O  O503  1  0.811293  0.079151  0.158718  1
  O  O504  1  0.920874  0.079172  0.222735  1
  O  O505  1  0.920859  0.311320  0.450962  1
  O  O506  1  0.920880  0.311357  0.358452  1
  O  O507  1  0.920827  0.188651  0.650721  1
  O  O508  1  0.920889  0.079130  0.586701  1
  O  O509  1  0.811262  0.079084  0.650758  1
  O  O510  1  0.613046  0.199557  0.404730  1
  O  O511  1  0.613055  0.300461  0.112463  1
  O  O512  1  0.699534  0.000000  0.470774  1
  O  O513  1  0.886999  0.000000  0.229094  1
  O  O514  1  0.699572  0.113018  0.404720  1
  O  O515  1  0.500022  0.300487  0.178526  1
  O  O516  1  0.800408  0.113015  0.112465  1
  O  O517  1  0.886986  0.300502  0.404704  1
  O  O518  1  0.886957  0.199526  0.696974  1
  O  O519  1  0.699545  -0.000000  0.338651  1
  O  O520  1  0.613015  0.000000  0.288074  1
  O  O521  1  0.800443  0.000000  0.178527  1
  O  O522  1  0.500002  0.113043  0.521367  1
  O  O523  1  0.500012  0.199574  0.470778  1
  O  O524  1  0.613000  -0.000000  0.521350  1
  O  O525  1  0.000000  0.300466  0.470766  1
  O  O526  1  0.000000  0.199557  0.630940  1
  O  O527  1  0.500029  0.300457  0.630940  1
  O  O528  1  0.500028  0.199551  0.338677  1
  O  O529  1  0.569896  0.650472  0.247343  1
  O  O530  1  0.730753  0.569951  0.200349  1
  O  O531  1  0.569914  0.349634  0.247347  1
  O  O532  1  0.730766  0.430178  0.200372  1
  O  O533  1  0.569806  0.650408  0.562083  1
  O  O534  1  0.730694  0.569908  0.609049  1
  O  O535  1  0.569926  0.349577  0.562111  1
  O  O536  1  0.730785  0.430125  0.609085  1
  O  O537  1  0.730748  0.650467  0.153276  1
  O  O538  1  0.650422  0.569956  0.247324  1
  O  O539  1  0.730789  0.349634  0.153324  1
  O  O540  1  0.650412  0.430182  0.247343  1
  O  O541  1  0.769202  0.650452  0.445549  1
  O  O542  1  0.849492  0.569935  0.539586  1
  O  O543  1  0.769224  0.349588  0.445576  1
  O  O544  1  0.849582  0.430143  0.539596  1
  O  O545  1  0.930102  0.349643  0.269819  1
  O  O546  1  0.769242  0.430156  0.316802  1
  O  O547  1  0.930119  0.650469  0.269829  1
  O  O548  1  0.769257  0.569946  0.316776  1
  O  O549  1  0.930093  0.349612  0.539591  1
  O  O550  1  0.769214  0.430109  0.492634  1
  O  O551  1  0.930029  0.650430  0.539605  1
  O  O552  1  0.769140  0.569926  0.492618  1
  O  O553  1  0.769237  0.349614  0.363853  1
  O  O554  1  0.849597  0.430155  0.269838  1
  O  O555  1  0.769277  0.650447  0.363844  1
  O  O556  1  0.849607  0.569937  0.269799  1
  O  O557  1  0.730793  0.349586  0.656144  1
  O  O558  1  0.650436  0.430111  0.562113  1
  O  O559  1  0.730706  0.650432  0.656111  1
  O  O560  1  0.650334  0.569885  0.562086  1
  O  O561  1  0.711991  0.619684  0.236339  1
  O  O562  1  0.711978  0.380455  0.236365  1
  O  O563  1  0.711883  0.619629  0.573056  1
  O  O564  1  0.712015  0.380397  0.573093  1
  O  O565  1  0.787921  0.619667  0.528604  1
  O  O566  1  0.788033  0.380402  0.528633  1
  O  O567  1  0.788026  0.380429  0.280813  1
  O  O568  1  0.788047  0.619665  0.280777  1
  O  O569  1  0.708581  0.402832  0.526642  1
  O  O570  1  0.708470  0.597191  0.526607  1
  O  O571  1  0.708570  0.402903  0.282809  1
  O  O572  1  0.708590  0.597226  0.282783  1
  O  O573  1  0.791433  0.402912  0.234375  1
  O  O574  1  0.791450  0.597226  0.234330  1
  O  O575  1  0.791344  0.597204  0.575047  1
  O  O576  1  0.791457  0.402867  0.575082  1
  O  O577  1  0.648386  0.648430  0.263419  1
  O  O578  1  0.758278  0.648426  0.199149  1
  O  O579  1  0.648379  0.351695  0.263441  1
  O  O580  1  0.758312  0.351695  0.199194  1
  O  O581  1  0.648269  0.648363  0.545986  1
  O  O582  1  0.758194  0.648398  0.610232  1
  O  O583  1  0.648408  0.351626  0.546027  1
  O  O584  1  0.758324  0.351646  0.610272  1
  O  O585  1  0.741626  0.648407  0.491417  1
  O  O586  1  0.851535  0.648421  0.555673  1
  O  O587  1  0.741734  0.351613  0.491459  1
  O  O588  1  0.851640  0.351661  0.555698  1
  O  O589  1  0.851630  0.351680  0.253728  1
  O  O590  1  0.741706  0.351671  0.317986  1
  O  O591  1  0.851652  0.648424  0.253717  1
  O  O592  1  0.741761  0.648428  0.317964  1
  O  O593  1  0.650060  0.555634  0.200159  1
  O  O594  1  0.650054  0.650123  0.144917  1
  O  O595  1  0.555560  0.650135  0.200182  1
  O  O596  1  0.650080  0.444492  0.200173  1
  O  O597  1  0.650100  0.349954  0.144944  1
  O  O598  1  0.555598  0.349967  0.200179  1
  O  O599  1  0.650015  0.555570  0.609259  1
  O  O600  1  0.650020  0.650084  0.664497  1
  O  O601  1  0.555513  0.650067  0.609252  1
  O  O602  1  0.650092  0.444428  0.609279  1
  O  O603  1  0.650108  0.349926  0.664523  1
  O  O604  1  0.555604  0.349910  0.609279  1
  O  O605  1  0.849829  0.555598  0.492426  1
  O  O606  1  0.944387  0.650096  0.492447  1
  O  O607  1  0.849896  0.650095  0.437201  1
  O  O608  1  0.849886  0.444470  0.492424  1
  O  O609  1  0.944404  0.349944  0.492426  1
  O  O610  1  0.849909  0.349945  0.437195  1
  O  O611  1  0.849934  0.444480  0.317003  1
  O  O612  1  0.849924  0.349975  0.372225  1
  O  O613  1  0.944441  0.349965  0.316985  1
  O  O614  1  0.849930  0.555615  0.316970  1
  O  O615  1  0.849965  0.650112  0.372232  1
  O  O616  1  0.944435  0.650129  0.316998  1
  O  O617  1  0.579124  0.579193  0.222751  1
  O  O618  1  0.688679  0.579184  0.158686  1
  O  O619  1  0.579146  0.420921  0.222750  1
  O  O620  1  0.688705  0.420911  0.158706  1
  O  O621  1  0.579061  0.579117  0.586678  1
  O  O622  1  0.688646  0.579144  0.650723  1
  O  O623  1  0.579162  0.420851  0.586706  1
  O  O624  1  0.688722  0.420873  0.650751  1
  O  O625  1  0.811229  0.579153  0.450956  1
  O  O626  1  0.920775  0.579166  0.515001  1
  O  O627  1  0.811265  0.420889  0.450961  1
  O  O628  1  0.920836  0.420900  0.514992  1
  O  O629  1  0.920879  0.420917  0.294422  1
  O  O630  1  0.811288  0.420918  0.358471  1
  O  O631  1  0.920868  0.579185  0.294412  1
  O  O632  1  0.811341  0.579176  0.358446  1
  O  O633  1  0.699532  0.500057  0.178499  1
  O  O634  1  0.500031  0.387033  0.229094  1
  O  O635  1  0.000000  0.612995  0.521369  1
  O  O636  1  0.699524  0.500014  0.630931  1
  O  O637  1  0.613014  0.500066  0.229084  1
  O  O638  1  0.699514  0.613051  0.696973  1
  O  O639  1  0.699583  0.386991  0.112459  1
  O  O640  1  0.886922  0.500040  0.521341  1
  O  O641  1  0.800458  0.613050  0.404702  1
  O  O642  1  0.800425  0.386990  0.404714  1
  O  O643  1  0.800460  0.500053  0.338649  1
  O  O644  1  0.800371  0.500021  0.470769  1
  O  O645  1  0.886994  0.500046  0.288069  1
  O  O646  1  0.612992  0.499986  0.580354  1
  O  O647  1  -0.000000  0.387024  0.521334  1
  O  O648  1  0.500037  0.386990  0.580360  1
  O  O649  1  -0.000000  0.613054  0.288084  1
  O  O650  1  0.650384  0.730813  0.153284  1
  O  O651  1  0.650356  0.769278  0.445549  1
  O  O652  1  0.569899  0.849587  0.539597  1
  O  O653  1  0.730742  0.930116  0.492631  1
  O  O654  1  0.650341  0.730772  0.656127  1
  O  O655  1  0.650420  0.769259  0.363861  1
  O  O656  1  0.569876  0.849633  0.269829  1
  O  O657  1  0.730772  0.930137  0.316794  1
  O  O658  1  0.569898  0.730820  0.200372  1
  O  O659  1  0.569839  0.769258  0.492620  1
  O  O660  1  0.730719  0.849612  0.445562  1
  O  O661  1  0.650392  0.930115  0.539608  1
  O  O662  1  0.930085  0.730788  0.492635  1
  O  O663  1  0.930131  0.769287  0.200356  1
  O  O664  1  0.769253  0.849622  0.153310  1
  O  O665  1  0.849606  0.930146  0.247338  1
  O  O666  1  0.849551  0.769222  0.656122  1
  O  O667  1  0.930113  0.849605  0.562088  1
  O  O668  1  0.769237  0.930096  0.609071  1
  O  O669  1  0.849620  0.730802  0.363869  1
  O  O670  1  0.849600  0.769272  0.153304  1
  O  O671  1  0.930128  0.849636  0.247325  1
  O  O672  1  0.769244  0.930130  0.200374  1
  O  O673  1  0.849559  0.730786  0.445566  1
  O  O674  1  0.930066  0.769252  0.609056  1
  O  O675  1  0.769192  0.849582  0.656149  1
  O  O676  1  0.849571  0.930126  0.562101  1
  O  O677  1  0.930140  0.730816  0.316793  1
  O  O678  1  0.569879  0.769277  0.316796  1
  O  O679  1  0.730769  0.849615  0.363861  1
  O  O680  1  0.650411  0.930137  0.269832  1
  O  O681  1  0.569833  0.730757  0.609052  1
  O  O682  1  0.711964  0.712031  0.182345  1
  O  O683  1  0.619632  0.712040  0.236357  1
  O  O684  1  0.711966  0.880399  0.528625  1
  O  O685  1  0.711921  0.788048  0.474626  1
  O  O686  1  0.619600  0.788005  0.528604  1
  O  O687  1  0.711911  0.712008  0.627055  1
  O  O688  1  0.619547  0.711973  0.573059  1
  O  O689  1  0.711994  0.880408  0.280813  1
  O  O690  1  0.712000  0.788038  0.334796  1
  O  O691  1  0.619616  0.788068  0.280816  1
  O  O692  1  0.880329  0.712021  0.528614  1
  O  O693  1  0.787976  0.712012  0.474628  1
  O  O694  1  0.788032  0.880411  0.236362  1
  O  O695  1  0.880406  0.788068  0.236348  1
  O  O696  1  0.788024  0.788053  0.182374  1
  O  O697  1  0.787998  0.880381  0.573076  1
  O  O698  1  0.787954  0.788035  0.627069  1
  O  O699  1  0.880354  0.788061  0.573062  1
  O  O700  1  0.788064  0.712026  0.334788  1
  O  O701  1  0.880393  0.712037  0.280804  1
  O  O702  1  0.708572  0.902862  0.234370  1
  O  O703  1  0.708595  0.708589  0.347910  1
  O  O704  1  0.902867  0.708622  0.234359  1
  O  O705  1  0.708492  0.791453  0.640191  1
  O  O706  1  0.902813  0.791469  0.526618  1
  O  O707  1  0.708547  0.902842  0.575073  1
  O  O708  1  0.708526  0.708609  0.461478  1
  O  O709  1  0.902762  0.708596  0.575060  1
  O  O710  1  0.708564  0.791479  0.169232  1
  O  O711  1  0.902865  0.791484  0.282796  1
  O  O712  1  0.791415  0.902855  0.526630  1
  O  O713  1  0.597088  0.708568  0.526609  1
  O  O714  1  0.791379  0.708575  0.640162  1
  O  O715  1  0.597175  0.791488  0.234365  1
  O  O716  1  0.791458  0.791468  0.347927  1
  O  O717  1  0.791388  0.791458  0.461501  1
  O  O718  1  0.597138  0.791429  0.575052  1
  O  O719  1  0.791454  0.902863  0.282806  1
  O  O720  1  0.791434  0.708615  0.169232  1
  O  O721  1  0.597175  0.708615  0.282804  1
  O  O722  1  0.648370  0.758344  0.199163  1
  O  O723  1  0.648305  0.741700  0.491413  1
  O  O724  1  0.648374  0.851616  0.555683  1
  O  O725  1  0.758255  0.851643  0.491439  1
  O  O726  1  0.648305  0.758292  0.610249  1
  O  O727  1  0.648376  0.741744  0.317993  1
  O  O728  1  0.648373  0.851666  0.253750  1
  O  O729  1  0.758308  0.851655  0.317992  1
  O  O730  1  0.851598  0.758331  0.491431  1
  O  O731  1  0.851647  0.741747  0.199173  1
  O  O732  1  0.741711  0.851656  0.199181  1
  O  O733  1  0.851652  0.851669  0.263423  1
  O  O734  1  0.851563  0.741762  0.610237  1
  O  O735  1  0.851621  0.851669  0.545997  1
  O  O736  1  0.741666  0.851644  0.610268  1
  O  O737  1  0.851670  0.758351  0.317995  1
  O  O738  1  0.650053  0.944436  0.492440  1
  O  O739  1  0.650026  0.849963  0.437183  1
  O  O740  1  0.555541  0.849949  0.492436  1
  O  O741  1  0.650069  0.944458  0.316989  1
  O  O742  1  0.650076  0.849949  0.372218  1
  O  O743  1  0.555543  0.849968  0.316990  1
  O  O744  1  0.849935  0.944468  0.200176  1
  O  O745  1  0.944451  0.849975  0.200157  1
  O  O746  1  0.849945  0.849951  0.144927  1
  O  O747  1  0.849937  0.944398  0.609268  1
  O  O748  1  0.849894  0.849891  0.664510  1
  O  O749  1  0.944423  0.849930  0.609258  1
  O  O750  1  0.579115  0.688736  0.158706  1
  O  O751  1  0.579074  0.811343  0.450956  1
  O  O752  1  0.579113  0.920882  0.515018  1
  O  O753  1  0.688661  0.920889  0.450962  1
  O  O754  1  0.579077  0.688688  0.650722  1
  O  O755  1  0.579131  0.811345  0.358449  1
  O  O756  1  0.579108  0.920910  0.294416  1
  O  O757  1  0.688696  0.920897  0.358453  1
  O  O758  1  0.920842  0.688710  0.450978  1
  O  O759  1  0.920894  0.811334  0.158686  1
  O  O760  1  0.811320  0.920900  0.158707  1
  O  O761  1  0.920891  0.920916  0.222741  1
  O  O762  1  0.920840  0.811298  0.650725  1
  O  O763  1  0.920878  0.920871  0.586679  1
  O  O764  1  0.811308  0.920830  0.650737  1
  O  O765  1  0.920906  0.688757  0.358470  1
  O  O766  1  0.612958  0.699560  0.696982  1
  O  O767  1  0.612977  0.800497  0.404699  1
  O  O768  1  -0.000000  0.699533  0.470785  1
  O  O769  1  0.699523  0.887015  0.404706  1
  O  O770  1  0.800454  0.886990  0.112453  1
  O  O771  1  0.886970  0.800439  0.696982  1
  O  O772  1  0.886993  0.699570  0.404726  1
  O  O773  1  -0.000000  0.800451  0.630920  1
  O  O774  1  0.886999  0.000000  0.580365  1
  O  O775  1  0.800481  -0.000000  0.630943  1
  O  O776  1  0.387009  0.300478  0.696990  1
  O  O777  1  0.300446  0.613029  0.697009  1
  O  O778  1  0.113010  0.800442  0.696994  1
  O  O779  1  0.199554  0.886963  0.696985  1
  O  O780  1  0.386970  0.699561  0.697010  1
  O  O781  1  0.613055  0.300461  0.697006  1
  O  O782  1  0.800408  0.113015  0.697007  1
  O  O783  1  0.699583  0.386991  0.697002  1
  O  O784  1  0.800454  0.886990  0.696996  1
  Si  Si785  1  0.121510  0.050263  0.584461  1
  Si  Si786  1  0.192602  0.121548  0.667618  1
  Si  Si787  1  0.050212  0.192603  0.625971  1
  Si  Si788  1  0.050252  0.307433  0.333681  1
  Si  Si789  1  0.179285  0.250113  0.175655  1
  Si  Si790  1  0.108138  0.179248  0.258618  1
  Si  Si791  1  0.250121  0.108141  0.217209  1
  Si  Si792  1  0.179247  0.249942  0.467947  1
  Si  Si793  1  0.108096  0.320788  0.550904  1
  Si  Si794  1  0.179230  0.250132  0.633752  1
  Si  Si795  1  0.108131  0.179274  0.550802  1
  Si  Si796  1  0.250108  0.108163  0.592215  1
  Si  Si797  1  0.179245  0.249905  0.341495  1
  Si  Si798  1  0.108138  0.320734  0.258508  1
  Si  Si799  1  0.108145  0.250094  0.217202  1
  Si  Si800  1  0.250148  0.179274  0.175663  1
  Si  Si801  1  0.179246  0.108145  0.258612  1
  Si  Si802  1  0.108114  0.249922  0.509497  1
  Si  Si803  1  0.250118  0.320770  0.467922  1
  Si  Si804  1  0.391871  0.250136  0.509490  1
  Si  Si805  1  0.249867  0.179248  0.467937  1
  Si  Si806  1  0.320743  0.108198  0.550900  1
  Si  Si807  1  0.391873  0.249965  0.217251  1
  Si  Si808  1  0.249930  0.320779  0.175643  1
  Si  Si809  1  0.320762  0.249948  0.633765  1
  Si  Si810  1  0.391900  0.320791  0.550790  1
  Si  Si811  1  0.320771  0.250121  0.341514  1
  Si  Si812  1  0.391845  0.179308  0.258552  1
  Si  Si813  1  0.249876  0.108159  0.299931  1
  Si  Si814  1  0.320795  0.249941  0.175668  1
  Si  Si815  1  0.391909  0.320811  0.258668  1
  Si  Si816  1  0.320737  0.250079  0.467940  1
  Si  Si817  1  0.391862  0.179292  0.550909  1
  Si  Si818  1  0.249865  0.108142  0.509499  1
  Si  Si819  1  0.391882  0.249946  0.592208  1
  Si  Si820  1  0.249894  0.320781  0.633759  1
  Si  Si821  1  0.391907  0.250155  0.299967  1
  Si  Si822  1  0.249921  0.179272  0.341488  1
  Si  Si823  1  0.320752  0.108189  0.258528  1
  Si  Si824  1  0.108141  0.249891  0.299927  1
  Si  Si825  1  0.250095  0.320756  0.341496  1
  Si  Si826  1  0.108087  0.250142  0.592208  1
  Si  Si827  1  0.250098  0.179300  0.633758  1
  Si  Si828  1  0.179229  0.108159  0.550814  1
  Si  Si829  1  0.121559  0.192586  0.141798  1
  Si  Si830  1  0.050247  0.121512  0.224980  1
  Si  Si831  1  0.192596  0.050242  0.183451  1
  Si  Si832  1  0.121518  0.307460  0.434086  1
  Si  Si833  1  0.121523  0.192586  0.667610  1
  Si  Si834  1  0.050242  0.121536  0.584440  1
  Si  Si835  1  0.192608  0.050248  0.625976  1
  Si  Si836  1  0.121507  0.307417  0.375353  1
  Si  Si837  1  0.050256  0.192566  0.183441  1
  Si  Si838  1  0.192629  0.121540  0.141807  1
  Si  Si839  1  0.121516  0.050241  0.224977  1
  Si  Si840  1  0.050222  0.307442  0.475733  1
  Si  Si841  1  0.449771  0.192597  0.475741  1
  Si  Si842  1  0.307397  0.121524  0.434081  1
  Si  Si843  1  0.378488  0.050286  0.517279  1
  Si  Si844  1  0.449783  0.307470  0.183487  1
  Si  Si845  1  0.378508  0.307453  0.667624  1
  Si  Si846  1  0.378492  0.192568  0.375359  1
  Si  Si847  1  0.449747  0.121544  0.292169  1
  Si  Si848  1  0.307390  0.050251  0.333688  1
  Si  Si849  1  0.378529  0.307466  0.141814  1
  Si  Si850  1  0.378480  0.192556  0.434091  1
  Si  Si851  1  0.449765  0.121548  0.517283  1
  Si  Si852  1  0.307420  0.050265  0.475747  1
  Si  Si853  1  0.449792  0.307451  0.625969  1
  Si  Si854  1  0.449787  0.192590  0.333711  1
  Si  Si855  1  0.307421  0.121523  0.375348  1
  Si  Si856  1  0.378471  0.050275  0.292163  1
  Si  Si857  1  0.121478  0.550221  0.292146  1
  Si  Si858  1  0.192548  0.621446  0.375369  1
  Si  Si859  1  0.250032  0.608184  0.509524  1
  Si  Si860  1  0.250126  0.391875  0.509483  1
  Si  Si861  1  0.250088  0.608116  0.299958  1
  Si  Si862  1  0.250087  0.391847  0.299925  1
  Si  Si863  1  0.179177  0.608131  0.550937  1
  Si  Si864  1  0.179248  0.391848  0.550883  1
  Si  Si865  1  0.320752  0.608146  0.258658  1
  Si  Si866  1  0.320780  0.391892  0.258644  1
  Si  Si867  1  0.249903  0.391872  0.592188  1
  Si  Si868  1  0.249845  0.608131  0.592236  1
  Si  Si869  1  0.249944  0.391860  0.217219  1
  Si  Si870  1  0.249901  0.608139  0.217240  1
  Si  Si871  1  0.320781  0.391883  0.550788  1
  Si  Si872  1  0.320697  0.608165  0.550819  1
  Si  Si873  1  0.179249  0.391835  0.258500  1
  Si  Si874  1  0.179240  0.608139  0.258538  1
  Si  Si875  1  0.050168  0.621476  0.517300  1
  Si  Si876  1  0.192544  0.550250  0.475767  1
  Si  Si877  1  0.050206  0.378515  0.517261  1
  Si  Si878  1  0.192591  0.449778  0.475734  1
  Si  Si879  1  0.050236  0.621519  0.292169  1
  Si  Si880  1  0.192529  0.550207  0.333690  1
  Si  Si881  1  0.050237  0.378475  0.292136  1
  Si  Si882  1  0.192530  0.449736  0.333670  1
  Si  Si883  1  0.192575  0.621505  0.434101  1
  Si  Si884  1  0.121464  0.550227  0.517292  1
  Si  Si885  1  0.192588  0.378508  0.434074  1
  Si  Si886  1  0.121506  0.449755  0.517256  1
  Si  Si887  1  0.307434  0.621530  0.141831  1
  Si  Si888  1  0.378498  0.550268  0.225017  1
  Si  Si889  1  0.307465  0.378520  0.141801  1
  Si  Si890  1  0.378513  0.449798  0.225012  1
  Si  Si891  1  0.449795  0.378512  0.584434  1
  Si  Si892  1  0.307426  0.449766  0.625950  1
  Si  Si893  1  0.449696  0.621529  0.584435  1
  Si  Si894  1  0.307395  0.550236  0.625980  1
  Si  Si895  1  0.449792  0.378536  0.225019  1
  Si  Si896  1  0.307463  0.449777  0.183469  1
  Si  Si897  1  0.449755  0.621553  0.225021  1
  Si  Si898  1  0.307432  0.550248  0.183483  1
  Si  Si899  1  0.307437  0.378498  0.667612  1
  Si  Si900  1  0.378513  0.449775  0.584429  1
  Si  Si901  1  0.307414  0.621507  0.667641  1
  Si  Si902  1  0.378442  0.550245  0.584434  1
  Si  Si903  1  0.192554  0.378487  0.375342  1
  Si  Si904  1  0.121499  0.449751  0.292116  1
  Si  Si905  1  0.050264  0.692573  0.333708  1
  Si  Si906  1  0.121499  0.949792  0.584445  1
  Si  Si907  1  0.192547  0.878486  0.667620  1
  Si  Si908  1  0.179216  0.750109  0.467953  1
  Si  Si909  1  0.108060  0.679223  0.550931  1
  Si  Si910  1  0.179246  0.749907  0.175681  1
  Si  Si911  1  0.108153  0.820758  0.258663  1
  Si  Si912  1  0.250100  0.891886  0.217226  1
  Si  Si913  1  0.179279  0.750054  0.341541  1
  Si  Si914  1  0.108151  0.679259  0.258547  1
  Si  Si915  1  0.179210  0.749891  0.633777  1
  Si  Si916  1  0.108143  0.820769  0.550792  1
  Si  Si917  1  0.250072  0.891860  0.592207  1
  Si  Si918  1  0.108105  0.750071  0.509516  1
  Si  Si919  1  0.250079  0.679269  0.467947  1
  Si  Si920  1  0.108139  0.749911  0.217247  1
  Si  Si921  1  0.250093  0.820761  0.175675  1
  Si  Si922  1  0.179246  0.891877  0.258642  1
  Si  Si923  1  0.391853  0.750136  0.217260  1
  Si  Si924  1  0.249910  0.679260  0.175687  1
  Si  Si925  1  0.391831  0.749945  0.509518  1
  Si  Si926  1  0.249846  0.820797  0.467955  1
  Si  Si927  1  0.320743  0.891911  0.550913  1
  Si  Si928  1  0.320760  0.749853  0.341548  1
  Si  Si929  1  0.391814  0.820757  0.258579  1
  Si  Si930  1  0.249877  0.891853  0.299958  1
  Si  Si931  1  0.320713  0.750093  0.633799  1
  Si  Si932  1  0.391794  0.679280  0.550812  1
  Si  Si933  1  0.320706  0.749954  0.467963  1
  Si  Si934  1  0.391836  0.820792  0.550935  1
  Si  Si935  1  0.249887  0.891932  0.509499  1
  Si  Si936  1  0.320756  0.750115  0.175689  1
  Si  Si937  1  0.391844  0.679265  0.258662  1
  Si  Si938  1  0.391861  0.749888  0.299981  1
  Si  Si939  1  0.249924  0.820718  0.341505  1
  Si  Si940  1  0.320733  0.891886  0.258543  1
  Si  Si941  1  0.391812  0.750126  0.592229  1
  Si  Si942  1  0.249867  0.679236  0.633797  1
  Si  Si943  1  0.108117  0.749919  0.592205  1
  Si  Si944  1  0.250057  0.820745  0.633763  1
  Si  Si945  1  0.179217  0.891907  0.550792  1
  Si  Si946  1  0.108189  0.750100  0.299965  1
  Si  Si947  1  0.250113  0.679186  0.341541  1
  Si  Si948  1  0.121500  0.692548  0.434109  1
  Si  Si949  1  0.121520  0.807420  0.141816  1
  Si  Si950  1  0.050258  0.878492  0.225026  1
  Si  Si951  1  0.192575  0.949769  0.183460  1
  Si  Si952  1  0.121516  0.692532  0.375379  1
  Si  Si953  1  0.121484  0.807432  0.667627  1
  Si  Si954  1  0.050246  0.878501  0.584430  1
  Si  Si955  1  0.192578  0.949776  0.625972  1
  Si  Si956  1  0.050213  0.692532  0.475762  1
  Si  Si957  1  0.050260  0.807444  0.183485  1
  Si  Si958  1  0.192578  0.878480  0.141809  1
  Si  Si959  1  0.121520  0.949770  0.225000  1
  Si  Si960  1  0.449760  0.692630  0.183496  1
  Si  Si961  1  0.449717  0.807491  0.475767  1
  Si  Si962  1  0.307367  0.878517  0.434090  1
  Si  Si963  1  0.378497  0.949814  0.517293  1
  Si  Si964  1  0.378470  0.807442  0.375379  1
  Si  Si965  1  0.449729  0.878524  0.292186  1
  Si  Si966  1  0.307396  0.949779  0.333704  1
  Si  Si967  1  0.378463  0.692575  0.667646  1
  Si  Si968  1  0.378441  0.807475  0.434108  1
  Si  Si969  1  0.449752  0.878530  0.517314  1
  Si  Si970  1  0.307454  0.949795  0.475745  1
  Si  Si971  1  0.378489  0.692591  0.141835  1
  Si  Si972  1  0.449745  0.807463  0.333719  1
  Si  Si973  1  0.307407  0.878497  0.375357  1
  Si  Si974  1  0.378465  0.949802  0.292169  1
  Si  Si975  1  0.449713  0.692581  0.625974  1
  Si  Si976  1  0.050214  0.807440  0.625964  1
  Si  Si977  1  0.621504  0.050266  0.292155  1
  Si  Si978  1  0.679287  0.250059  0.467954  1
  Si  Si979  1  0.608169  0.179227  0.550923  1
  Si  Si980  1  0.750140  0.108104  0.509500  1
  Si  Si981  1  0.679287  0.249950  0.175686  1
  Si  Si982  1  0.608162  0.320800  0.258656  1
  Si  Si983  1  0.679263  0.250109  0.341507  1
  Si  Si984  1  0.608133  0.179276  0.258531  1
  Si  Si985  1  0.750116  0.108171  0.299953  1
  Si  Si986  1  0.679267  0.249905  0.633783  1
  Si  Si987  1  0.608179  0.320746  0.550807  1
  Si  Si988  1  0.608167  0.250083  0.509512  1
  Si  Si989  1  0.750144  0.179216  0.467940  1
  Si  Si990  1  0.679266  0.108112  0.550904  1
  Si  Si991  1  0.608167  0.249950  0.217243  1
  Si  Si992  1  0.750132  0.320806  0.175683  1
  Si  Si993  1  0.891914  0.250148  0.217208  1
  Si  Si994  1  0.749944  0.179297  0.175687  1
  Si  Si995  1  0.820792  0.108185  0.258660  1
  Si  Si996  1  0.891854  0.249913  0.509494  1
  Si  Si997  1  0.749913  0.320744  0.467939  1
  Si  Si998  1  0.820769  0.249942  0.341491  1
  Si  Si999  1  0.891861  0.320801  0.258510  1
  Si  Si1000  1  0.820722  0.250048  0.633755  1
  Si  Si1001  1  0.891853  0.179247  0.550789  1
  Si  Si1002  1  0.749895  0.108070  0.592221  1
  Si  Si1003  1  0.820771  0.249900  0.467915  1
  Si  Si1004  1  0.891854  0.320769  0.550903  1
  Si  Si1005  1  0.820792  0.250150  0.175651  1
  Si  Si1006  1  0.891890  0.179300  0.258623  1
  Si  Si1007  1  0.749929  0.108191  0.217250  1
  Si  Si1008  1  0.891872  0.249951  0.299924  1
  Si  Si1009  1  0.749905  0.320780  0.341494  1
  Si  Si1010  1  0.891846  0.250104  0.592200  1
  Si  Si1011  1  0.749872  0.179197  0.633770  1
  Si  Si1012  1  0.820768  0.108118  0.550817  1
  Si  Si1013  1  0.608163  0.249891  0.592218  1
  Si  Si1014  1  0.750118  0.320755  0.633779  1
  Si  Si1015  1  0.608148  0.250123  0.299946  1
  Si  Si1016  1  0.750128  0.179271  0.341517  1
  Si  Si1017  1  0.679255  0.108185  0.258542  1
  Si  Si1018  1  0.621534  0.192561  0.434095  1
  Si  Si1019  1  0.550242  0.121525  0.517285  1
  Si  Si1020  1  0.692583  0.050236  0.475744  1
  Si  Si1021  1  0.621542  0.307457  0.141829  1
  Si  Si1022  1  0.621535  0.192583  0.375363  1
  Si  Si1023  1  0.550228  0.121534  0.292156  1
  Si  Si1024  1  0.692567  0.050263  0.333691  1
  Si  Si1025  1  0.621543  0.307434  0.667640  1
  Si  Si1026  1  0.550250  0.192585  0.475750  1
  Si  Si1027  1  0.692596  0.121506  0.434087  1
  Si  Si1028  1  0.621502  0.050244  0.517269  1
  Si  Si1029  1  0.550262  0.307471  0.183486  1
  Si  Si1030  1  0.949779  0.192595  0.183447  1
  Si  Si1031  1  0.807418  0.121524  0.141827  1
  Si  Si1032  1  0.878502  0.050274  0.225018  1
  Si  Si1033  1  0.949745  0.307446  0.475736  1
  Si  Si1034  1  0.878496  0.307486  0.375338  1
  Si  Si1035  1  0.878450  0.192521  0.667611  1
  Si  Si1036  1  0.949765  0.121516  0.584419  1
  Si  Si1037  1  0.807439  0.050196  0.625981  1
  Si  Si1038  1  0.878482  0.307459  0.434070  1
  Si  Si1039  1  0.878482  0.192577  0.141800  1
  Si  Si1040  1  0.949770  0.121547  0.224989  1
  Si  Si1041  1  0.807422  0.050263  0.183492  1
  Si  Si1042  1  0.949774  0.307473  0.333681  1
  Si  Si1043  1  0.949735  0.192569  0.625958  1
  Si  Si1044  1  0.807383  0.121472  0.667637  1
  Si  Si1045  1  0.878512  0.050229  0.584451  1
  Si  Si1046  1  0.550271  0.307421  0.625977  1
  Si  Si1047  1  0.550264  0.192577  0.333700  1
  Si  Si1048  1  0.692594  0.121523  0.375356  1
  Si  Si1049  1  0.621448  0.550230  0.584420  1
  Si  Si1050  1  0.621528  0.449759  0.584439  1
  Si  Si1051  1  0.692520  0.621526  0.667607  1
  Si  Si1052  1  0.750100  0.608201  0.217200  1
  Si  Si1053  1  0.750100  0.391933  0.217232  1
  Si  Si1054  1  0.750007  0.608163  0.592189  1
  Si  Si1055  1  0.750130  0.391881  0.592228  1
  Si  Si1056  1  0.679262  0.608205  0.258624  1
  Si  Si1057  1  0.679245  0.391930  0.258648  1
  Si  Si1058  1  0.820659  0.608192  0.550884  1
  Si  Si1059  1  0.820766  0.391892  0.550913  1
  Si  Si1060  1  0.749906  0.391909  0.299946  1
  Si  Si1061  1  0.749935  0.608197  0.299916  1
  Si  Si1062  1  0.749911  0.391856  0.509498  1
  Si  Si1063  1  0.749805  0.608182  0.509469  1
  Si  Si1064  1  0.820760  0.391911  0.258531  1
  Si  Si1065  1  0.820777  0.608191  0.258493  1
  Si  Si1066  1  0.679276  0.391862  0.550812  1
  Si  Si1067  1  0.679151  0.608142  0.550775  1
  Si  Si1068  1  0.550233  0.621569  0.225021  1
  Si  Si1069  1  0.692553  0.550295  0.183459  1
  Si  Si1070  1  0.550269  0.378535  0.225017  1
  Si  Si1071  1  0.692571  0.449822  0.183472  1
  Si  Si1072  1  0.550173  0.621499  0.584414  1
  Si  Si1073  1  0.692516  0.550243  0.625953  1
  Si  Si1074  1  0.550273  0.378475  0.584440  1
  Si  Si1075  1  0.692583  0.449770  0.625979  1
  Si  Si1076  1  0.692549  0.621559  0.141796  1
  Si  Si1077  1  0.621506  0.550301  0.225004  1
  Si  Si1078  1  0.692593  0.378523  0.141827  1
  Si  Si1079  1  0.621514  0.449831  0.225012  1
  Si  Si1080  1  0.807398  0.621537  0.434071  1
  Si  Si1081  1  0.878398  0.550271  0.517264  1
  Si  Si1082  1  0.807406  0.378501  0.434081  1
  Si  Si1083  1  0.878460  0.449800  0.517260  1
  Si  Si1084  1  0.949760  0.378533  0.292147  1
  Si  Si1085  1  0.807435  0.449813  0.333698  1
  Si  Si1086  1  0.949759  0.621563  0.292158  1
  Si  Si1087  1  0.807445  0.550285  0.333674  1
  Si  Si1088  1  0.949727  0.378521  0.517261  1
  Si  Si1089  1  0.807385  0.449788  0.475731  1
  Si  Si1090  1  0.949689  0.621523  0.517283  1
  Si  Si1091  1  0.807336  0.550261  0.475728  1
  Si  Si1092  1  0.807419  0.378525  0.375348  1
  Si  Si1093  1  0.878499  0.449813  0.292162  1
  Si  Si1094  1  0.807467  0.621547  0.375338  1
  Si  Si1095  1  0.878497  0.550284  0.292133  1
  Si  Si1096  1  0.692603  0.378492  0.667637  1
  Si  Si1097  1  0.807437  0.949791  0.183480  1
  Si  Si1098  1  0.550189  0.692561  0.625949  1
  Si  Si1099  1  0.878466  0.692587  0.434087  1
  Si  Si1100  1  0.878494  0.949758  0.584426  1
  Si  Si1101  1  0.621497  0.949794  0.292152  1
  Si  Si1102  1  0.692566  0.878519  0.375339  1
  Si  Si1103  1  0.550221  0.807475  0.333686  1
  Si  Si1104  1  0.949786  0.692623  0.333692  1
  Si  Si1105  1  0.807408  0.878465  0.667632  1
  Si  Si1106  1  0.878503  0.807454  0.141805  1
  Si  Si1107  1  0.949735  0.807434  0.625953  1
  Si  Si1108  1  0.949781  0.878536  0.224998  1
  Si  Si1109  1  0.679230  0.750150  0.175640  1
  Si  Si1110  1  0.608154  0.679307  0.258638  1
  Si  Si1111  1  0.679192  0.749929  0.467905  1
  Si  Si1112  1  0.608146  0.820738  0.550890  1
  Si  Si1113  1  0.750081  0.891872  0.509488  1
  Si  Si1114  1  0.679175  0.750118  0.633769  1
  Si  Si1115  1  0.608050  0.679249  0.550775  1
  Si  Si1116  1  0.679265  0.749921  0.341504  1
  Si  Si1117  1  0.608136  0.820797  0.258534  1
  Si  Si1118  1  0.750117  0.891884  0.299945  1
  Si  Si1119  1  0.608153  0.750158  0.217224  1
  Si  Si1120  1  0.750085  0.679302  0.175636  1
  Si  Si1121  1  0.608087  0.749898  0.509470  1
  Si  Si1122  1  0.750050  0.820774  0.467921  1
  Si  Si1123  1  0.679231  0.891865  0.550907  1
  Si  Si1124  1  0.891827  0.750135  0.509482  1
  Si  Si1125  1  0.749856  0.679285  0.467906  1
  Si  Si1126  1  0.891885  0.749949  0.217216  1
  Si  Si1127  1  0.749905  0.820786  0.175663  1
  Si  Si1128  1  0.820771  0.891895  0.258640  1
  Si  Si1129  1  0.820695  0.749918  0.633760  1
  Si  Si1130  1  0.891849  0.820788  0.550782  1
  Si  Si1131  1  0.749882  0.891858  0.592214  1
  Si  Si1132  1  0.820791  0.750144  0.341508  1
  Si  Si1133  1  0.891873  0.679306  0.258521  1
  Si  Si1134  1  0.820760  0.749939  0.175661  1
  Si  Si1135  1  0.891883  0.820797  0.258631  1
  Si  Si1136  1  0.749908  0.891882  0.217230  1
  Si  Si1137  1  0.820714  0.750128  0.467920  1
  Si  Si1138  1  0.891780  0.679283  0.550896  1
  Si  Si1139  1  0.891806  0.749938  0.592196  1
  Si  Si1140  1  0.749839  0.820766  0.633785  1
  Si  Si1141  1  0.820731  0.891881  0.550795  1
  Si  Si1142  1  0.891887  0.750153  0.299937  1
  Si  Si1143  1  0.749944  0.679288  0.341487  1
  Si  Si1144  1  0.608143  0.749945  0.299947  1
  Si  Si1145  1  0.750114  0.820776  0.341506  1
  Si  Si1146  1  0.679254  0.891889  0.258535  1
  Si  Si1147  1  0.608085  0.750092  0.592194  1
  Si  Si1148  1  0.750030  0.679270  0.633751  1
  Si  Si1149  1  0.621481  0.692609  0.141805  1
  Si  Si1150  1  0.621454  0.807475  0.434066  1
  Si  Si1151  1  0.550229  0.878500  0.517282  1
  Si  Si1152  1  0.692544  0.949769  0.475738  1
  Si  Si1153  1  0.621449  0.692572  0.667616  1
  Si  Si1154  1  0.621509  0.807459  0.375336  1
  Si  Si1155  1  0.550211  0.878535  0.292152  1
  Si  Si1156  1  0.692569  0.949792  0.333683  1
  Si  Si1157  1  0.550236  0.692625  0.183482  1
  Si  Si1158  1  0.550193  0.807465  0.475733  1
  Si  Si1159  1  0.692530  0.878517  0.434070  1
  Si  Si1160  1  0.621492  0.949774  0.517280  1
  Si  Si1161  1  0.949737  0.692583  0.475749  1
  Si  Si1162  1  0.949783  0.807479  0.183461  1
  Si  Si1163  1  0.807450  0.878519  0.141820  1
  Si  Si1164  1  0.878507  0.949804  0.225012  1
  Si  Si1165  1  0.878464  0.807403  0.667617  1
  Si  Si1166  1  0.949769  0.878494  0.584419  1
  Si  Si1167  1  0.807443  0.949727  0.625967  1
  Si  Si1168  1  0.878522  0.692608  0.375357  1
  H  H1169  1  0.113060  0.199572  0.095284  1
  H  H1170  1  0.199605  0.113068  0.095289  1
  H  H1171  1  0.300476  0.387005  0.095284  1
  H  H1172  1  0.886957  0.199526  0.095280  1
  H  H1173  1  0.699514  0.613051  0.095280  1
  H  H1174  1  0.612958  0.699560  0.095289  1
  H  H1175  1  0.886970  0.800439  0.095289  1
  H  H1176  1  0.113060  0.199572  0.714127  1
  H  H1177  1  0.199605  0.113068  0.714133  1
  H  H1178  1  0.387009  0.300478  0.095297  1
  H  H1179  1  0.300446  0.613029  0.095316  1
  H  H1180  1  0.300476  0.387005  0.714128  1
  H  H1181  1  0.113010  0.800442  0.095301  1
  H  H1182  1  0.199554  0.886963  0.095292  1
  H  H1183  1  0.386970  0.699561  0.095317  1
  H  H1184  1  0.613055  0.300461  0.095313  1
  H  H1185  1  0.800408  0.113015  0.095314  1
  H  H1186  1  0.886957  0.199526  0.714124  1
  H  H1187  1  0.699514  0.613051  0.714123  1
  H  H1188  1  0.699583  0.386991  0.095309  1
  H  H1189  1  0.612958  0.699560  0.714132  1
  H  H1190  1  0.800454  0.886990  0.095303  1
  H  H1191  1  0.886970  0.800439  0.714133  1
  H  H1192  1  0.387009  0.300478  0.714140  1
  H  H1193  1  0.300446  0.613029  0.714160  1
  H  H1194  1  0.113010  0.800442  0.714144  1
  H  H1195  1  0.199554  0.886963  0.714136  1
  H  H1196  1  0.386970  0.699561  0.714161  1
  H  H1197  1  0.613055  0.300461  0.714157  1
  H  H1198  1  0.800408  0.113015  0.714158  1
  H  H1199  1  0.699583  0.386991  0.714153  1
  H  H1200  1  0.800454  0.886990  0.714147  1
