# generated using pymatgen
data_Si43H6O89
_symmetry_space_group_name_H-M   'P 1'
_cell_length_a   21.88992159
_cell_length_b   39.14737771
_cell_length_c   47.04154554
_cell_angle_alpha   90.00000000
_cell_angle_beta   90.00000000
_cell_angle_gamma   90.00000000
_symmetry_Int_Tables_number   1
_chemical_formula_structural   Si43H6O89
_chemical_formula_sum   'Si344 H48 O712'
_cell_volume   40311.4540867
_cell_formula_units_Z   8
loop_
 _symmetry_equiv_pos_site_id
 _symmetry_equiv_pos_as_xyz
  1  'x, y, z'
loop_
 _atom_site_type_symbol
 _atom_site_label
 _atom_site_symmetry_multiplicity
 _atom_site_fract_x
 _atom_site_fract_y
 _atom_site_fract_z
 _atom_site_occupancy
  O  O1  1  0.181872  0.305580  0.214386  1
  O  O2  1  0.317780  -0.000000  0.214256  1
  O  O3  1  0.295660  0.291226  0.214217  1
  O  O4  1  0.222266  0.241314  0.221502  1
  O  O5  1  0.274157  0.063275  0.221883  1
  O  O6  1  0.203097  0.013323  0.213208  1
  O  O7  1  0.398648  0.272506  0.232437  1
  O  O8  1  0.387795  0.280331  0.179557  1
  O  O9  1  0.295055  0.189027  0.213712  1
  O  O10  1  0.179782  0.178018  0.214459  1
  O  O11  1  0.110070  0.017307  0.179231  1
  O  O12  1  0.098013  0.022123  0.232460  1
  O  O13  1  0.200887  0.115078  0.213609  1
  O  O14  1  0.314829  0.126019  0.213559  1
  O  O15  1  0.417661  0.267532  0.125425  1
  O  O16  1  0.422077  0.221124  0.162637  1
  O  O17  1  0.421930  0.218385  0.259546  1
  O  O18  1  0.382189  0.164797  0.179266  1
  O  O19  1  0.395922  0.165742  0.232446  1
  O  O20  1  0.114764  0.137151  0.179403  1
  O  O21  1  0.100547  0.134133  0.232660  1
  O  O22  1  0.000000  0.032548  0.163127  1
  O  O23  1  0.082404  0.032514  0.125426  1
  O  O24  1  0.079483  0.078439  0.163193  1
  O  O25  1  0.389882  0.331891  0.212990  1
  O  O26  1  0.418155  0.174847  0.125427  1
  O  O27  1  0.082125  0.124337  0.125426  1
  O  O28  1  0.000000  0.124630  0.163746  1
  O  O29  1  0.499997  0.174305  0.164099  1
  O  O30  1  0.101627  0.348087  0.232547  1
  O  O31  1  0.115815  0.344763  0.179658  1
  O  O32  1  0.199757  0.370377  0.213571  1
  O  O33  1  0.113249  0.461437  0.179304  1
  O  O34  1  0.098479  0.459543  0.232550  1
  O  O35  1  0.182165  0.500627  0.214256  1
  O  O36  1  0.191910  0.435882  0.213462  1
  O  O37  1  0.295445  0.412199  0.220791  1
  O  O38  1  0.225795  0.563283  0.221895  1
  O  O39  1  0.296851  0.513335  0.213204  1
  O  O40  1  0.406709  0.398363  0.220721  1
  O  O41  1  0.371274  0.463864  0.211908  1
  O  O42  1  0.499975  0.532549  0.163131  1
  O  O43  1  0.389908  0.517320  0.179241  1
  O  O44  1  0.401918  0.522151  0.232472  1
  O  O45  1  0.299078  0.615080  0.213617  1
  O  O46  1  0.185128  0.626027  0.213583  1
  O  O47  1  0.117786  0.664791  0.179276  1
  O  O48  1  0.104041  0.665761  0.232457  1
  O  O49  1  0.385223  0.637153  0.179416  1
  O  O50  1  0.399420  0.634130  0.232672  1
  O  O51  1  0.417575  0.532519  0.125436  1
  O  O52  1  0.420513  0.578445  0.163203  1
  O  O53  1  0.417865  0.624342  0.125438  1
  O  O54  1  0.499982  0.624633  0.163753  1
  O  O55  1  0.499994  0.357288  0.219344  1
  O  O56  1  0.318106  0.805570  0.214396  1
  O  O57  1  0.398340  0.848073  0.232566  1
  O  O58  1  0.384210  0.844744  0.179675  1
  O  O59  1  0.300230  0.870364  0.213567  1
  O  O60  1  0.386724  0.961422  0.179325  1
  O  O61  1  0.401451  0.959540  0.232575  1
  O  O62  1  0.308044  0.935868  0.213473  1
  O  O63  1  0.418053  0.855786  0.125439  1
  O  O64  1  0.421759  0.902063  0.162826  1
  O  O65  1  0.204518  0.912172  0.220790  1
  O  O66  1  0.204310  0.791221  0.214237  1
  O  O67  1  0.277710  0.741310  0.221518  1
  O  O68  1  0.417471  0.948254  0.125441  1
  O  O69  1  0.093251  0.898344  0.220726  1
  O  O70  1  0.128696  0.963842  0.211896  1
  O  O71  1  0.110069  0.831871  0.213011  1
  O  O72  1  0.101336  0.772486  0.232464  1
  O  O73  1  0.112178  0.780311  0.179581  1
  O  O74  1  0.204917  0.689029  0.213726  1
  O  O75  1  0.320194  0.678016  0.214471  1
  O  O76  1  0.082319  0.767526  0.125443  1
  O  O77  1  0.077889  0.721113  0.162650  1
  O  O78  1  0.081815  0.674838  0.125434  1
  O  O79  1  0.499984  0.948535  0.163442  1
  O  O80  1  0.818136  0.305566  0.214393  1
  O  O81  1  0.682193  -0.000000  0.214254  1
  O  O82  1  0.704345  0.291218  0.214223  1
  O  O83  1  0.777742  0.241303  0.221510  1
  O  O84  1  0.725828  0.063274  0.221891  1
  O  O85  1  0.796887  0.013331  0.213203  1
  O  O86  1  0.601372  0.272490  0.232449  1
  O  O87  1  0.612205  0.280321  0.179568  1
  O  O88  1  0.704952  0.189021  0.213720  1
  O  O89  1  0.820228  0.178009  0.214468  1
  O  O90  1  0.889951  0.017312  0.179241  1
  O  O91  1  0.901957  0.022142  0.232472  1
  O  O92  1  0.799115  0.115071  0.213613  1
  O  O93  1  0.685169  0.126019  0.213570  1
  O  O94  1  0.582351  0.267526  0.125431  1
  O  O95  1  0.577922  0.221119  0.162643  1
  O  O96  1  0.617810  0.164793  0.179274  1
  O  O97  1  0.604086  0.165746  0.232458  1
  O  O98  1  0.885258  0.137147  0.179413  1
  O  O99  1  0.899453  0.134123  0.232669  1
  O  O100  1  0.917609  0.032514  0.125435  1
  O  O101  1  0.920546  0.078439  0.163201  1
  O  O102  1  0.581849  0.174841  0.125434  1
  O  O103  1  0.917894  0.124337  0.125435  1
  O  O104  1  0.610110  0.331878  0.213001  1
  O  O105  1  0.500002  0.267791  0.163361  1
  O  O106  1  0.898359  0.348079  0.232562  1
  O  O107  1  0.884219  0.344744  0.179671  1
  O  O108  1  0.800240  0.370361  0.213568  1
  O  O109  1  0.886726  0.461423  0.179321  1
  O  O110  1  0.901461  0.459544  0.232570  1
  O  O111  1  0.817769  0.500612  0.214255  1
  O  O112  1  0.808062  0.435865  0.213473  1
  O  O113  1  0.704537  0.412180  0.220791  1
  O  O114  1  0.774162  0.563272  0.221896  1
  O  O115  1  0.703083  0.513336  0.213209  1
  O  O116  1  0.593279  0.398350  0.220726  1
  O  O117  1  0.628704  0.463849  0.211904  1
  O  O118  1  0.610037  0.517308  0.179239  1
  O  O119  1  0.597999  0.522126  0.232469  1
  O  O120  1  0.700874  0.615068  0.213618  1
  O  O121  1  0.814815  0.626020  0.213576  1
  O  O122  1  0.882156  0.664791  0.179275  1
  O  O123  1  0.895893  0.665756  0.232457  1
  O  O124  1  0.614741  0.637142  0.179413  1
  O  O125  1  0.600528  0.634116  0.232668  1
  O  O126  1  0.582369  0.532509  0.125434  1
  O  O127  1  0.579445  0.578437  0.163200  1
  O  O128  1  0.582096  0.624333  0.125436  1
  O  O129  1  0.681841  0.805577  0.214395  1
  O  O130  1  0.601607  0.848092  0.232547  1
  O  O131  1  0.615806  0.844766  0.179659  1
  O  O132  1  0.699749  0.870373  0.213577  1
  O  O133  1  0.613248  0.961442  0.179305  1
  O  O134  1  0.598482  0.959550  0.232552  1
  O  O135  1  0.691897  0.935876  0.213462  1
  O  O136  1  0.500006  0.855455  0.163892  1
  O  O137  1  0.581927  0.855803  0.125423  1
  O  O138  1  0.578231  0.902078  0.162808  1
  O  O139  1  0.795432  0.912202  0.220794  1
  O  O140  1  0.795624  0.791213  0.214229  1
  O  O141  1  0.722218  0.741307  0.221514  1
  O  O142  1  0.582458  0.948270  0.125421  1
  O  O143  1  0.906684  0.898352  0.220732  1
  O  O144  1  0.871292  0.963857  0.211912  1
  O  O145  1  0.889845  0.831878  0.213011  1
  O  O146  1  0.898601  0.772493  0.232463  1
  O  O147  1  0.887770  0.780316  0.179580  1
  O  O148  1  0.795019  0.689025  0.213721  1
  O  O149  1  0.679748  0.678008  0.214471  1
  O  O150  1  0.917627  0.767528  0.125443  1
  O  O151  1  0.922054  0.721115  0.162649  1
  O  O152  1  -0.000000  0.674296  0.164105  1
  O  O153  1  0.918126  0.674841  0.125435  1
  O  O154  1  -0.000000  0.857279  0.219357  1
  O  O155  1  0.000000  0.767785  0.163377  1
  O  O156  1  0.181872  0.305580  0.482665  1
  O  O157  1  0.181869  0.305577  0.304741  1
  O  O158  1  0.317787  0.000000  0.304883  1
  O  O159  1  0.317780  -0.000000  0.482535  1
  O  O160  1  0.295660  0.291226  0.482496  1
  O  O161  1  0.295659  0.291212  0.304911  1
  O  O162  1  0.222266  0.241314  0.489781  1
  O  O163  1  0.222248  0.241311  0.297622  1
  O  O164  1  0.235196  0.286276  0.259563  1
  O  O165  1  0.274183  0.063280  0.297247  1
  O  O166  1  0.274157  0.063275  0.490161  1
  O  O167  1  0.261172  0.017703  0.259569  1
  O  O168  1  0.203106  0.013337  0.305934  1
  O  O169  1  0.203097  0.013323  0.481486  1
  O  O170  1  0.398648  0.272506  0.500716  1
  O  O171  1  0.398636  0.272487  0.286681  1
  O  O172  1  0.387795  0.280331  0.447836  1
  O  O173  1  0.387806  0.280316  0.339564  1
  O  O174  1  0.295055  0.189027  0.481991  1
  O  O175  1  0.295051  0.189031  0.305415  1
  O  O176  1  0.179782  0.178018  0.482738  1
  O  O177  1  0.179778  0.178014  0.304668  1
  O  O178  1  0.235679  0.196331  0.259563  1
  O  O179  1  0.110056  0.017312  0.339899  1
  O  O180  1  0.110070  0.017307  0.447510  1
  O  O181  1  0.098034  0.022138  0.286668  1
  O  O182  1  0.098013  0.022123  0.500739  1
  O  O183  1  0.200908  0.115077  0.305526  1
  O  O184  1  0.200887  0.115078  0.481888  1
  O  O185  1  0.260614  0.108623  0.259564  1
  O  O186  1  0.314852  0.126029  0.305559  1
  O  O187  1  0.314829  0.126019  0.481838  1
  O  O188  1  0.417661  0.267532  0.393704  1
  O  O189  1  0.422077  0.221124  0.430916  1
  O  O190  1  0.422087  0.221119  0.356495  1
  O  O191  1  0.082847  0.078270  0.259557  1
  O  O192  1  0.421930  0.218385  0.527824  1
  O  O193  1  0.382189  0.164797  0.447545  1
  O  O194  1  0.382193  0.164797  0.339863  1
  O  O195  1  0.395922  0.165742  0.500724  1
  O  O196  1  0.395929  0.165767  0.286683  1
  O  O197  1  0.114764  0.137151  0.447682  1
  O  O198  1  0.114763  0.137148  0.339728  1
  O  O199  1  0.100547  0.134133  0.500939  1
  O  O200  1  0.100564  0.134119  0.286473  1
  O  O201  1  0.389876  0.331874  0.306129  1
  O  O202  1  -0.000000  0.032548  0.431406  1
  O  O203  1  0.082404  0.032514  0.393705  1
  O  O204  1  0.079469  0.078441  0.355939  1
  O  O205  1  0.079483  0.078439  0.431472  1
  O  O206  1  -0.000000  0.124634  0.355393  1
  O  O207  1  0.389882  0.331891  0.481269  1
  O  O208  1  0.418155  0.174847  0.393706  1
  O  O209  1  0.082125  0.124337  0.393705  1
  O  O210  1  -0.000000  0.124630  0.432025  1
  O  O211  1  0.000000  0.123162  0.259575  1
  O  O212  1  0.499999  0.171202  0.259563  1
  O  O213  1  0.499997  0.174305  0.432378  1
  O  O214  1  0.101627  0.348087  0.500826  1
  O  O215  1  0.101632  0.348082  0.286572  1
  O  O216  1  0.115815  0.344763  0.447936  1
  O  O217  1  0.115789  0.344759  0.339463  1
  O  O218  1  0.199757  0.370377  0.481850  1
  O  O219  1  0.199748  0.370373  0.305559  1
  O  O220  1  0.113249  0.461437  0.447582  1
  O  O221  1  0.113210  0.461437  0.339813  1
  O  O222  1  0.098479  0.459543  0.500828  1
  O  O223  1  0.098496  0.459552  0.286561  1
  O  O224  1  0.182165  0.500627  0.482534  1
  O  O225  1  0.182174  0.500623  0.304884  1
  O  O226  1  0.191910  0.435882  0.481741  1
  O  O227  1  0.191895  0.435877  0.305670  1
  O  O228  1  0.499975  0.623162  0.259576  1
  O  O229  1  -0.000000  0.355452  0.432168  1
  O  O230  1  0.081941  0.355797  0.393700  1
  O  O231  1  0.078234  0.402074  0.431086  1
  O  O232  1  0.078211  0.402072  0.356312  1
  O  O233  1  0.295445  0.412199  0.489069  1
  O  O234  1  0.295435  0.412196  0.298347  1
  O  O235  1  0.218602  0.403918  0.259566  1
  O  O236  1  0.082464  0.448264  0.393699  1
  O  O237  1  0.417124  0.578279  0.259584  1
  O  O238  1  0.077596  0.402863  0.259563  1
  O  O239  1  0.225795  0.563283  0.490174  1
  O  O240  1  0.225815  0.563277  0.297257  1
  O  O241  1  0.238792  0.517703  0.259571  1
  O  O242  1  0.296851  0.513335  0.481483  1
  O  O243  1  0.296864  0.513325  0.305937  1
  O  O244  1  0.406709  0.398363  0.488999  1
  O  O245  1  0.406693  0.398349  0.298416  1
  O  O246  1  0.361985  0.435136  0.259572  1
  O  O247  1  0.371274  0.463864  0.480187  1
  O  O248  1  0.371279  0.463853  0.307242  1
  O  O249  1  0.499962  0.533281  0.259569  1
  O  O250  1  0.499975  0.532549  0.431410  1
  O  O251  1  0.389908  0.517320  0.447520  1
  O  O252  1  0.389905  0.517315  0.339910  1
  O  O253  1  0.401918  0.522151  0.500751  1
  O  O254  1  0.401941  0.522137  0.286680  1
  O  O255  1  0.299078  0.615080  0.481896  1
  O  O256  1  0.299089  0.615078  0.305538  1
  O  O257  1  0.239373  0.608626  0.259579  1
  O  O258  1  0.185128  0.626027  0.481862  1
  O  O259  1  0.185141  0.626020  0.305580  1
  O  O260  1  0.424344  0.355976  0.259563  1
  O  O261  1  0.499981  0.357283  0.299789  1
  O  O262  1  0.117777  0.664795  0.339874  1
  O  O263  1  0.117786  0.664791  0.447555  1
  O  O264  1  0.104047  0.665738  0.286692  1
  O  O265  1  0.104041  0.665761  0.500736  1
  O  O266  1  0.385222  0.637155  0.339741  1
  O  O267  1  0.385223  0.637153  0.447694  1
  O  O268  1  0.399425  0.634139  0.286485  1
  O  O269  1  0.399420  0.634130  0.500950  1
  O  O270  1  0.499969  0.532549  0.356017  1
  O  O271  1  0.417575  0.532519  0.393715  1
  O  O272  1  0.420513  0.578445  0.431482  1
  O  O273  1  0.420506  0.578445  0.355950  1
  O  O274  1  0.417865  0.624342  0.393717  1
  O  O275  1  0.499978  0.624632  0.355400  1
  O  O276  1  0.499982  0.624633  0.432032  1
  O  O277  1  0.499994  0.357288  0.487622  1
  O  O278  1  0.318101  0.805572  0.304757  1
  O  O279  1  0.318106  0.805570  0.482675  1
  O  O280  1  0.398348  0.848076  0.286590  1
  O  O281  1  0.398340  0.848073  0.500845  1
  O  O282  1  0.384174  0.844750  0.339482  1
  O  O283  1  0.384210  0.844744  0.447953  1
  O  O284  1  0.300220  0.870367  0.305573  1
  O  O285  1  0.300230  0.870364  0.481846  1
  O  O286  1  0.386679  0.961421  0.339834  1
  O  O287  1  0.386724  0.961422  0.447604  1
  O  O288  1  0.401474  0.959533  0.286588  1
  O  O289  1  0.401451  0.959540  0.500854  1
  O  O290  1  0.308034  0.935872  0.305664  1
  O  O291  1  0.308044  0.935868  0.481752  1
  O  O292  1  0.499973  0.855457  0.355249  1
  O  O293  1  0.418053  0.855786  0.393718  1
  O  O294  1  0.421725  0.902064  0.356332  1
  O  O295  1  0.421759  0.902063  0.431105  1
  O  O296  1  0.204513  0.912178  0.298345  1
  O  O297  1  0.204518  0.912172  0.489068  1
  O  O298  1  0.281352  0.903886  0.259569  1
  O  O299  1  0.204306  0.791228  0.304923  1
  O  O300  1  0.204310  0.791221  0.482516  1
  O  O301  1  0.277697  0.741311  0.297640  1
  O  O302  1  0.277710  0.741310  0.489797  1
  O  O303  1  0.264783  0.786275  0.259579  1
  O  O304  1  0.417471  0.948254  0.393719  1
  O  O305  1  0.093247  0.898358  0.298417  1
  O  O306  1  0.093251  0.898344  0.489005  1
  O  O307  1  0.137985  0.935127  0.259566  1
  O  O308  1  0.128704  0.963855  0.307232  1
  O  O309  1  0.128696  0.963842  0.480175  1
  O  O310  1  0.110074  0.831887  0.306151  1
  O  O311  1  0.110069  0.831871  0.481290  1
  O  O312  1  0.101322  0.772499  0.286708  1
  O  O313  1  0.101336  0.772486  0.500743  1
  O  O314  1  0.112176  0.780330  0.339587  1
  O  O315  1  0.112178  0.780311  0.447860  1
  O  O316  1  0.204911  0.689025  0.305426  1
  O  O317  1  0.204917  0.689029  0.482004  1
  O  O318  1  0.320188  0.678019  0.304686  1
  O  O319  1  0.320194  0.678016  0.482750  1
  O  O320  1  0.264295  0.696329  0.259578  1
  O  O321  1  0.075601  0.855969  0.259579  1
  O  O322  1  0.078036  0.718381  0.259594  1
  O  O323  1  0.422366  0.902854  0.259576  1
  O  O324  1  0.082319  0.767526  0.393722  1
  O  O325  1  0.077894  0.721125  0.356505  1
  O  O326  1  0.077889  0.721113  0.430928  1
  O  O327  1  0.499979  0.855591  0.259569  1
  O  O328  1  0.081815  0.674838  0.393713  1
  O  O329  1  0.499945  0.948537  0.355698  1
  O  O330  1  0.499984  0.948535  0.431721  1
  O  O331  1  0.499974  0.949643  0.259566  1
  O  O332  1  0.818131  0.305566  0.304747  1
  O  O333  1  0.818136  0.305566  0.482672  1
  O  O334  1  0.682193  -0.000000  0.482532  1
  O  O335  1  0.682189  -0.000000  0.304884  1
  O  O336  1  0.704336  0.291224  0.304912  1
  O  O337  1  0.704345  0.291218  0.482501  1
  O  O338  1  0.777729  0.241305  0.297633  1
  O  O339  1  0.777742  0.241303  0.489789  1
  O  O340  1  0.764807  0.286267  0.259569  1
  O  O341  1  0.725828  0.063274  0.490170  1
  O  O342  1  0.725824  0.063274  0.297249  1
  O  O343  1  0.738817  0.017694  0.259570  1
  O  O344  1  0.796887  0.013331  0.481482  1
  O  O345  1  0.796883  0.013333  0.305938  1
  O  O346  1  0.601356  0.272492  0.286693  1
  O  O347  1  0.601372  0.272490  0.500728  1
  O  O348  1  0.612213  0.280319  0.339574  1
  O  O349  1  0.612205  0.280321  0.447847  1
  O  O350  1  0.704941  0.189021  0.305422  1
  O  O351  1  0.704952  0.189021  0.481999  1
  O  O352  1  0.820216  0.178012  0.304682  1
  O  O353  1  0.820228  0.178009  0.482747  1
  O  O354  1  0.764327  0.196323  0.259573  1
  O  O355  1  0.889951  0.017312  0.447520  1
  O  O356  1  0.889930  0.017315  0.339910  1
  O  O357  1  0.901957  0.022142  0.500751  1
  O  O358  1  0.901968  0.022130  0.286680  1
  O  O359  1  0.799115  0.115071  0.481891  1
  O  O360  1  0.799108  0.115072  0.305533  1
  O  O361  1  0.739399  0.108621  0.259571  1
  O  O362  1  0.685169  0.126019  0.481849  1
  O  O363  1  0.685157  0.126019  0.305568  1
  O  O364  1  0.582351  0.267526  0.393710  1
  O  O365  1  0.577929  0.221117  0.356500  1
  O  O366  1  0.577922  0.221119  0.430922  1
  O  O367  1  0.617816  0.164788  0.339873  1
  O  O368  1  0.617810  0.164793  0.447553  1
  O  O369  1  0.604068  0.165746  0.286692  1
  O  O370  1  0.604086  0.165746  0.500736  1
  O  O371  1  0.885242  0.137148  0.339738  1
  O  O372  1  0.885258  0.137147  0.447691  1
  O  O373  1  0.899450  0.134131  0.286482  1
  O  O374  1  0.899453  0.134123  0.500948  1
  O  O375  1  0.917609  0.032514  0.393714  1
  O  O376  1  0.920546  0.078439  0.431480  1
  O  O377  1  0.920536  0.078442  0.355948  1
  O  O378  1  0.581849  0.174841  0.393712  1
  O  O379  1  0.917894  0.124337  0.393714  1
  O  O380  1  0.917156  0.078273  0.259583  1
  O  O381  1  0.578073  0.218380  0.259571  1
  O  O382  1  0.500009  0.267786  0.355773  1
  O  O383  1  0.610110  0.331878  0.481280  1
  O  O384  1  -0.000000  0.032549  0.356013  1
  O  O385  1  0.610096  0.331878  0.306141  1
  O  O386  1  0.000000  0.033282  0.259572  1
  O  O387  1  0.500006  0.174301  0.355040  1
  O  O388  1  0.500002  0.267791  0.431640  1
  O  O389  1  0.500003  0.265707  0.259564  1
  O  O390  1  0.898367  0.348077  0.286586  1
  O  O391  1  0.898359  0.348079  0.500841  1
  O  O392  1  0.884196  0.344743  0.339477  1
  O  O393  1  0.884219  0.344744  0.447949  1
  O  O394  1  0.800237  0.370359  0.305571  1
  O  O395  1  0.800240  0.370361  0.481847  1
  O  O396  1  0.886693  0.461418  0.339830  1
  O  O397  1  0.886726  0.461423  0.447599  1
  O  O398  1  0.901466  0.459542  0.286582  1
  O  O399  1  0.901461  0.459544  0.500849  1
  O  O400  1  0.817759  0.500610  0.304890  1
  O  O401  1  0.817769  0.500612  0.482534  1
  O  O402  1  0.808051  0.435864  0.305667  1
  O  O403  1  0.808062  0.435865  0.481752  1
  O  O404  1  0.918066  0.355782  0.393714  1
  O  O405  1  0.921739  0.402058  0.356328  1
  O  O406  1  0.921765  0.402061  0.431101  1
  O  O407  1  0.704530  0.412174  0.298350  1
  O  O408  1  0.704537  0.412180  0.489070  1
  O  O409  1  0.781366  0.403884  0.259570  1
  O  O410  1  0.917479  0.448249  0.393714  1
  O  O411  1  0.774153  0.563270  0.297255  1
  O  O412  1  0.774162  0.563272  0.490175  1
  O  O413  1  0.761158  0.517693  0.259573  1
  O  O414  1  0.703072  0.513334  0.305935  1
  O  O415  1  0.703083  0.513336  0.481488  1
  O  O416  1  0.593267  0.398349  0.298415  1
  O  O417  1  0.593279  0.398350  0.489005  1
  O  O418  1  0.638005  0.435129  0.259572  1
  O  O419  1  0.628700  0.463845  0.307242  1
  O  O420  1  0.628704  0.463849  0.480183  1
  O  O421  1  -0.000000  0.355450  0.355246  1
  O  O422  1  -0.000000  0.448532  0.431718  1
  O  O423  1  0.610028  0.517306  0.339906  1
  O  O424  1  0.610037  0.517308  0.447518  1
  O  O425  1  0.597985  0.522119  0.286676  1
  O  O426  1  0.597999  0.522126  0.500748  1
  O  O427  1  0.700869  0.615068  0.305534  1
  O  O428  1  0.700874  0.615068  0.481897  1
  O  O429  1  0.760590  0.608619  0.259577  1
  O  O430  1  0.814809  0.626019  0.305579  1
  O  O431  1  0.814815  0.626020  0.481855  1
  O  O432  1  0.575630  0.355966  0.259570  1
  O  O433  1  0.000000  0.355592  0.259566  1
  O  O434  1  0.882156  0.664791  0.447553  1
  O  O435  1  0.882159  0.664798  0.339875  1
  O  O436  1  0.895893  0.665756  0.500736  1
  O  O437  1  0.895889  0.665747  0.286693  1
  O  O438  1  0.614741  0.637142  0.447692  1
  O  O439  1  0.614734  0.637144  0.339737  1
  O  O440  1  0.600528  0.634116  0.500947  1
  O  O441  1  0.600527  0.634118  0.286481  1
  O  O442  1  -0.000000  0.448529  0.355695  1
  O  O443  1  0.582369  0.532509  0.393712  1
  O  O444  1  0.579441  0.578436  0.355947  1
  O  O445  1  0.579445  0.578437  0.431479  1
  O  O446  1  0.582096  0.624333  0.393714  1
  O  O447  1  0.922374  0.402859  0.259575  1
  O  O448  1  0.000000  0.449643  0.259568  1
  O  O449  1  0.582814  0.578263  0.259577  1
  O  O450  1  0.681841  0.805577  0.482674  1
  O  O451  1  0.681837  0.805574  0.304749  1
  O  O452  1  0.601607  0.848092  0.500826  1
  O  O453  1  0.601614  0.848083  0.286572  1
  O  O454  1  0.615806  0.844766  0.447937  1
  O  O455  1  0.615765  0.844764  0.339465  1
  O  O456  1  0.699749  0.870373  0.481856  1
  O  O457  1  0.699730  0.870372  0.305561  1
  O  O458  1  0.613248  0.961442  0.447584  1
  O  O459  1  0.613198  0.961446  0.339814  1
  O  O460  1  0.598482  0.959550  0.500831  1
  O  O461  1  0.598491  0.959559  0.286562  1
  O  O462  1  0.691897  0.935876  0.481741  1
  O  O463  1  0.691875  0.935875  0.305675  1
  O  O464  1  0.500006  0.855455  0.432171  1
  O  O465  1  0.581927  0.855803  0.393701  1
  O  O466  1  0.578231  0.902078  0.431087  1
  O  O467  1  0.578195  0.902080  0.356313  1
  O  O468  1  0.795432  0.912202  0.489073  1
  O  O469  1  0.795415  0.912199  0.298354  1
  O  O470  1  0.718589  0.903920  0.259570  1
  O  O471  1  0.795624  0.791213  0.482508  1
  O  O472  1  0.795623  0.791215  0.304925  1
  O  O473  1  0.722218  0.741307  0.489793  1
  O  O474  1  0.722221  0.741306  0.297634  1
  O  O475  1  0.735162  0.786270  0.259575  1
  O  O476  1  0.582458  0.948270  0.393700  1
  O  O477  1  0.921891  0.718382  0.259582  1
  O  O478  1  0.000000  0.765710  0.259582  1
  O  O479  1  0.906684  0.898352  0.489011  1
  O  O480  1  0.906672  0.898351  0.298427  1
  O  O481  1  0.861968  0.935135  0.259578  1
  O  O482  1  0.871292  0.963857  0.480191  1
  O  O483  1  0.871271  0.963854  0.307246  1
  O  O484  1  0.889845  0.831878  0.481290  1
  O  O485  1  0.889846  0.831880  0.306149  1
  O  O486  1  0.898601  0.772493  0.500741  1
  O  O487  1  0.898608  0.772493  0.286707  1
  O  O488  1  0.887770  0.780316  0.447859  1
  O  O489  1  0.887762  0.780327  0.339587  1
  O  O490  1  0.795019  0.689025  0.482000  1
  O  O491  1  0.795019  0.689024  0.305426  1
  O  O492  1  0.679748  0.678008  0.482750  1
  O  O493  1  0.679748  0.678008  0.304678  1
  O  O494  1  0.735647  0.696326  0.259574  1
  O  O495  1  0.924315  0.855971  0.259580  1
  O  O496  1  0.917627  0.767528  0.393722  1
  O  O497  1  0.922054  0.721115  0.430928  1
  O  O498  1  0.922049  0.721126  0.356504  1
  O  O499  1  -0.000000  0.674296  0.432383  1
  O  O500  1  0.918126  0.674841  0.393714  1
  O  O501  1  0.577587  0.902867  0.259565  1
  O  O502  1  0.000000  0.857288  0.299802  1
  O  O503  1  -0.000000  0.857279  0.487636  1
  O  O504  1  -0.000000  0.671202  0.259577  1
  O  O505  1  -0.000000  0.767795  0.355789  1
  O  O506  1  0.000000  0.767785  0.431655  1
  O  O507  1  -0.000000  0.674310  0.355044  1
  O  O508  1  0.181869  0.305577  0.573020  1
  O  O509  1  0.317787  0.000000  0.573162  1
  O  O510  1  0.295659  0.291212  0.573190  1
  O  O511  1  0.222248  0.241311  0.565900  1
  O  O512  1  0.235196  0.286276  0.527842  1
  O  O513  1  0.274183  0.063280  0.565526  1
  O  O514  1  0.261172  0.017703  0.527848  1
  O  O515  1  0.203106  0.013337  0.574213  1
  O  O516  1  0.398636  0.272487  0.554960  1
  O  O517  1  0.387806  0.280316  0.607843  1
  O  O518  1  0.295051  0.189031  0.573694  1
  O  O519  1  0.179778  0.178014  0.572947  1
  O  O520  1  0.235679  0.196331  0.527842  1
  O  O521  1  0.110056  0.017312  0.608177  1
  O  O522  1  0.098034  0.022138  0.554947  1
  O  O523  1  0.200908  0.115077  0.573805  1
  O  O524  1  0.260614  0.108623  0.527843  1
  O  O525  1  0.314852  0.126029  0.573838  1
  O  O526  1  0.417661  0.267532  0.661982  1
  O  O527  1  0.422087  0.221119  0.624774  1
  O  O528  1  0.082847  0.078270  0.527835  1
  O  O529  1  0.382193  0.164797  0.608142  1
  O  O530  1  0.395929  0.165767  0.554961  1
  O  O531  1  0.114763  0.137148  0.608007  1
  O  O532  1  0.100564  0.134119  0.554752  1
  O  O533  1  0.389876  0.331874  0.574408  1
  O  O534  1  0.082404  0.032514  0.661984  1
  O  O535  1  0.079469  0.078441  0.624218  1
  O  O536  1  -0.000000  0.124634  0.623672  1
  O  O537  1  0.418155  0.174847  0.661985  1
  O  O538  1  0.082125  0.124337  0.661984  1
  O  O539  1  -0.000000  0.123162  0.527854  1
  O  O540  1  0.499999  0.171202  0.527841  1
  O  O541  1  0.101632  0.348082  0.554850  1
  O  O542  1  0.115789  0.344759  0.607742  1
  O  O543  1  0.199748  0.370373  0.573838  1
  O  O544  1  0.113210  0.461437  0.608092  1
  O  O545  1  0.098496  0.459552  0.554840  1
  O  O546  1  0.182174  0.500623  0.573163  1
  O  O547  1  0.191895  0.435877  0.573949  1
  O  O548  1  0.499975  0.623162  0.527855  1
  O  O549  1  0.081941  0.355797  0.661979  1
  O  O550  1  0.078211  0.402072  0.624591  1
  O  O551  1  0.295435  0.412196  0.566626  1
  O  O552  1  0.218602  0.403918  0.527845  1
  O  O553  1  0.082464  0.448264  0.661977  1
  O  O554  1  0.417124  0.578279  0.527863  1
  O  O555  1  0.077596  0.402863  0.527841  1
  O  O556  1  0.225815  0.563277  0.565536  1
  O  O557  1  0.238792  0.517703  0.527850  1
  O  O558  1  0.296864  0.513325  0.574216  1
  O  O559  1  0.406693  0.398349  0.566695  1
  O  O560  1  0.361985  0.435136  0.527851  1
  O  O561  1  0.371279  0.463853  0.575520  1
  O  O562  1  0.499962  0.533281  0.527848  1
  O  O563  1  0.389905  0.517315  0.608189  1
  O  O564  1  0.401941  0.522137  0.554959  1
  O  O565  1  0.299089  0.615078  0.573817  1
  O  O566  1  0.239373  0.608626  0.527858  1
  O  O567  1  0.185141  0.626020  0.573859  1
  O  O568  1  0.424344  0.355976  0.527842  1
  O  O569  1  0.499981  0.357283  0.568068  1
  O  O570  1  0.117777  0.664795  0.608153  1
  O  O571  1  0.104047  0.665738  0.554971  1
  O  O572  1  0.385222  0.637155  0.608020  1
  O  O573  1  0.399425  0.634139  0.554763  1
  O  O574  1  0.499969  0.532549  0.624296  1
  O  O575  1  0.417575  0.532519  0.661994  1
  O  O576  1  0.420506  0.578445  0.624229  1
  O  O577  1  0.417865  0.624342  0.661996  1
  O  O578  1  0.499978  0.624632  0.623679  1
  O  O579  1  0.318101  0.805572  0.573035  1
  O  O580  1  0.398348  0.848076  0.554869  1
  O  O581  1  0.384174  0.844750  0.607760  1
  O  O582  1  0.300220  0.870367  0.573852  1
  O  O583  1  0.386679  0.961421  0.608113  1
  O  O584  1  0.401474  0.959533  0.554866  1
  O  O585  1  0.308034  0.935872  0.573942  1
  O  O586  1  0.204513  0.912178  0.566624  1
  O  O587  1  0.281352  0.903886  0.527848  1
  O  O588  1  0.204306  0.791228  0.573202  1
  O  O589  1  0.277697  0.741311  0.565918  1
  O  O590  1  0.264783  0.786275  0.527857  1
  O  O591  1  0.093247  0.898358  0.566696  1
  O  O592  1  0.137985  0.935127  0.527845  1
  O  O593  1  0.128704  0.963855  0.575511  1
  O  O594  1  0.110074  0.831887  0.574430  1
  O  O595  1  0.101322  0.772499  0.554987  1
  O  O596  1  0.112176  0.780330  0.607866  1
  O  O597  1  0.204911  0.689025  0.573705  1
  O  O598  1  0.320188  0.678019  0.572965  1
  O  O599  1  0.264295  0.696329  0.527856  1
  O  O600  1  0.075601  0.855969  0.527857  1
  O  O601  1  0.078036  0.718381  0.527873  1
  O  O602  1  0.422366  0.902854  0.527855  1
  O  O603  1  0.082319  0.767526  0.662001  1
  O  O604  1  0.077894  0.721125  0.624783  1
  O  O605  1  0.499979  0.855591  0.527848  1
  O  O606  1  0.081815  0.674838  0.661992  1
  O  O607  1  0.499974  0.949643  0.527845  1
  O  O608  1  0.818131  0.305566  0.573026  1
  O  O609  1  0.682189  -0.000000  0.573163  1
  O  O610  1  0.704336  0.291224  0.573191  1
  O  O611  1  0.777729  0.241305  0.565912  1
  O  O612  1  0.764807  0.286267  0.527848  1
  O  O613  1  0.725824  0.063274  0.565528  1
  O  O614  1  0.738817  0.017694  0.527849  1
  O  O615  1  0.796883  0.013333  0.574217  1
  O  O616  1  0.601356  0.272492  0.554972  1
  O  O617  1  0.612213  0.280319  0.607853  1
  O  O618  1  0.704941  0.189021  0.573700  1
  O  O619  1  0.820216  0.178012  0.572961  1
  O  O620  1  0.764327  0.196323  0.527851  1
  O  O621  1  0.889930  0.017315  0.608189  1
  O  O622  1  0.901968  0.022130  0.554959  1
  O  O623  1  0.799108  0.115072  0.573811  1
  O  O624  1  0.739399  0.108621  0.527850  1
  O  O625  1  0.685157  0.126019  0.573847  1
  O  O626  1  0.582351  0.267526  0.661989  1
  O  O627  1  0.577929  0.221117  0.624779  1
  O  O628  1  0.617816  0.164788  0.608152  1
  O  O629  1  0.604068  0.165746  0.554971  1
  O  O630  1  0.885242  0.137148  0.608017  1
  O  O631  1  0.899450  0.134131  0.554761  1
  O  O632  1  0.917609  0.032514  0.661993  1
  O  O633  1  0.920536  0.078442  0.624227  1
  O  O634  1  0.581849  0.174841  0.661991  1
  O  O635  1  0.917894  0.124337  0.661992  1
  O  O636  1  0.917156  0.078273  0.527862  1
  O  O637  1  0.578073  0.218380  0.527850  1
  O  O638  1  0.500009  0.267786  0.624052  1
  O  O639  1  0.000000  0.032549  0.624292  1
  O  O640  1  0.610096  0.331878  0.574420  1
  O  O641  1  -0.000000  0.033282  0.527851  1
  O  O642  1  0.500006  0.174301  0.623318  1
  O  O643  1  0.500003  0.265707  0.527843  1
  O  O644  1  0.898367  0.348077  0.554865  1
  O  O645  1  0.884196  0.344743  0.607756  1
  O  O646  1  0.800237  0.370359  0.573850  1
  O  O647  1  0.886693  0.461418  0.608109  1
  O  O648  1  0.901466  0.459542  0.554861  1
  O  O649  1  0.817759  0.500610  0.573169  1
  O  O650  1  0.808051  0.435864  0.573946  1
  O  O651  1  0.918066  0.355782  0.661992  1
  O  O652  1  0.921739  0.402058  0.624607  1
  O  O653  1  0.704530  0.412174  0.566628  1
  O  O654  1  0.781366  0.403884  0.527849  1
  O  O655  1  0.917479  0.448249  0.661993  1
  O  O656  1  0.774153  0.563270  0.565533  1
  O  O657  1  0.761158  0.517693  0.527852  1
  O  O658  1  0.703072  0.513334  0.574214  1
  O  O659  1  0.593267  0.398349  0.566694  1
  O  O660  1  0.638005  0.435129  0.527851  1
  O  O661  1  0.628700  0.463845  0.575521  1
  O  O662  1  -0.000000  0.355450  0.623525  1
  O  O663  1  0.610028  0.517306  0.608185  1
  O  O664  1  0.597985  0.522119  0.554955  1
  O  O665  1  0.700869  0.615068  0.573812  1
  O  O666  1  0.760590  0.608619  0.527856  1
  O  O667  1  0.814809  0.626019  0.573858  1
  O  O668  1  0.575630  0.355966  0.527848  1
  O  O669  1  0.000000  0.355592  0.527845  1
  O  O670  1  0.882159  0.664798  0.608154  1
  O  O671  1  0.895889  0.665747  0.554972  1
  O  O672  1  0.614734  0.637144  0.608016  1
  O  O673  1  0.600527  0.634118  0.554760  1
  O  O674  1  -0.000000  0.448529  0.623974  1
  O  O675  1  0.582369  0.532509  0.661991  1
  O  O676  1  0.579441  0.578436  0.624226  1
  O  O677  1  0.582096  0.624333  0.661993  1
  O  O678  1  0.922374  0.402859  0.527854  1
  O  O679  1  0.000000  0.449643  0.527847  1
  O  O680  1  0.582814  0.578263  0.527855  1
  O  O681  1  0.681837  0.805574  0.573028  1
  O  O682  1  0.601614  0.848083  0.554851  1
  O  O683  1  0.615765  0.844764  0.607744  1
  O  O684  1  0.699730  0.870372  0.573840  1
  O  O685  1  0.613198  0.961446  0.608093  1
  O  O686  1  0.598491  0.959559  0.554841  1
  O  O687  1  0.691875  0.935875  0.573954  1
  O  O688  1  0.795415  0.912199  0.566633  1
  O  O689  1  0.718589  0.903920  0.527848  1
  O  O690  1  0.795623  0.791215  0.573203  1
  O  O691  1  0.722221  0.741306  0.565913  1
  O  O692  1  0.735162  0.786270  0.527853  1
  O  O693  1  0.921891  0.718382  0.527861  1
  O  O694  1  -0.000000  0.765710  0.527861  1
  O  O695  1  0.906672  0.898351  0.566705  1
  O  O696  1  0.861968  0.935135  0.527857  1
  O  O697  1  0.871271  0.963854  0.575525  1
  O  O698  1  0.889846  0.831880  0.574428  1
  O  O699  1  0.898608  0.772493  0.554985  1
  O  O700  1  0.887762  0.780327  0.607866  1
  O  O701  1  0.795019  0.689024  0.573705  1
  O  O702  1  0.679748  0.678008  0.572957  1
  O  O703  1  0.735647  0.696326  0.527853  1
  O  O704  1  0.924315  0.855971  0.527859  1
  O  O705  1  0.917627  0.767528  0.662001  1
  O  O706  1  0.922049  0.721126  0.624783  1
  O  O707  1  0.918126  0.674841  0.661992  1
  O  O708  1  0.577587  0.902867  0.527844  1
  O  O709  1  0.000000  0.857288  0.568081  1
  O  O710  1  0.000000  0.671202  0.527856  1
  O  O711  1  -0.000000  0.767795  0.624068  1
  O  O712  1  -0.000000  0.674310  0.623323  1
  Si  Si713  1  0.232017  0.280734  0.226662  1
  Si  Si714  1  0.265533  0.023907  0.226639  1
  Si  Si715  1  0.365995  0.294345  0.209145  1
  Si  Si716  1  0.232186  0.201845  0.226547  1
  Si  Si717  1  0.134649  0.003745  0.208487  1
  Si  Si718  1  0.263462  0.102521  0.226528  1
  Si  Si719  1  0.429752  0.260563  0.158040  1
  Si  Si720  1  0.346916  0.161522  0.208468  1
  Si  Si721  1  0.148479  0.142197  0.208865  1
  Si  Si722  1  0.070286  0.039048  0.158074  1
  Si  Si723  1  0.429655  0.181601  0.158150  1
  Si  Si724  1  0.070426  0.117887  0.158182  1
  Si  Si725  1  0.150590  0.341291  0.208978  1
  Si  Si726  1  0.146787  0.466291  0.208674  1
  Si  Si727  1  0.226231  0.404534  0.226363  1
  Si  Si728  1  0.234417  0.523914  0.226642  1
  Si  Si729  1  0.360167  0.428252  0.226637  1
  Si  Si730  1  0.365308  0.503766  0.208495  1
  Si  Si731  1  0.236504  0.602528  0.226543  1
  Si  Si732  1  0.430209  0.360853  0.226446  1
  Si  Si733  1  0.153048  0.661529  0.208484  1
  Si  Si734  1  0.351494  0.642195  0.208875  1
  Si  Si735  1  0.429701  0.539054  0.158083  1
  Si  Si736  1  0.429567  0.617893  0.158194  1
  Si  Si737  1  0.349403  0.841277  0.208987  1
  Si  Si738  1  0.353165  0.966278  0.208690  1
  Si  Si739  1  0.429661  0.862545  0.158165  1
  Si  Si740  1  0.273733  0.904511  0.226365  1
  Si  Si741  1  0.267958  0.780730  0.226678  1
  Si  Si742  1  0.429708  0.941574  0.158038  1
  Si  Si743  1  0.139799  0.928233  0.226633  1
  Si  Si744  1  0.133971  0.794328  0.209169  1
  Si  Si745  1  0.267788  0.701842  0.226561  1
  Si  Si746  1  0.069744  0.860838  0.226461  1
  Si  Si747  1  0.070222  0.760553  0.158058  1
  Si  Si748  1  0.070316  0.681591  0.158158  1
  Si  Si749  1  0.767988  0.280723  0.226669  1
  Si  Si750  1  0.734450  0.023906  0.226640  1
  Si  Si751  1  0.634007  0.294335  0.209155  1
  Si  Si752  1  0.767822  0.201835  0.226555  1
  Si  Si753  1  0.865343  0.003759  0.208495  1
  Si  Si754  1  0.736539  0.102520  0.226535  1
  Si  Si755  1  0.570252  0.260558  0.158046  1
  Si  Si756  1  0.653083  0.161521  0.208477  1
  Si  Si757  1  0.851529  0.142188  0.208872  1
  Si  Si758  1  0.929737  0.039048  0.158082  1
  Si  Si759  1  0.570344  0.181596  0.158156  1
  Si  Si760  1  0.929598  0.117887  0.158190  1
  Si  Si761  1  0.849419  0.341278  0.208985  1
  Si  Si762  1  0.853170  0.466280  0.208686  1
  Si  Si763  1  0.773749  0.404510  0.226366  1
  Si  Si764  1  0.765526  0.523904  0.226644  1
  Si  Si765  1  0.639820  0.428240  0.226638  1
  Si  Si766  1  0.634636  0.503753  0.208494  1
  Si  Si767  1  0.763451  0.602518  0.226540  1
  Si  Si768  1  0.569778  0.360842  0.226452  1
  Si  Si769  1  0.846890  0.661526  0.208480  1
  Si  Si770  1  0.648459  0.642183  0.208875  1
  Si  Si771  1  0.570250  0.539045  0.158081  1
  Si  Si772  1  0.570395  0.617884  0.158191  1
  Si  Si773  1  0.650573  0.841291  0.208981  1
  Si  Si774  1  0.646790  0.966293  0.208675  1
  Si  Si775  1  0.570343  0.862559  0.158151  1
  Si  Si776  1  0.726220  0.904531  0.226367  1
  Si  Si777  1  0.731976  0.780727  0.226674  1
  Si  Si778  1  0.570259  0.941589  0.158021  1
  Si  Si779  1  0.860157  0.928249  0.226643  1
  Si  Si780  1  0.865962  0.794331  0.209165  1
  Si  Si781  1  0.732148  0.701839  0.226557  1
  Si  Si782  1  0.930175  0.860842  0.226462  1
  Si  Si783  1  0.929723  0.760555  0.158058  1
  Si  Si784  1  0.929628  0.681592  0.158158  1
  Si  Si785  1  0.232017  0.280734  0.494941  1
  Si  Si786  1  0.232011  0.280731  0.292464  1
  Si  Si787  1  0.265544  0.023912  0.292498  1
  Si  Si788  1  0.265533  0.023907  0.494918  1
  Si  Si789  1  0.365995  0.294345  0.477424  1
  Si  Si790  1  0.365997  0.294327  0.309977  1
  Si  Si791  1  0.232186  0.201845  0.494825  1
  Si  Si792  1  0.232179  0.201843  0.292580  1
  Si  Si793  1  0.134655  0.003757  0.310644  1
  Si  Si794  1  0.134649  0.003745  0.476766  1
  Si  Si795  1  0.263481  0.102526  0.292601  1
  Si  Si796  1  0.263462  0.102521  0.494807  1
  Si  Si797  1  0.429752  0.260563  0.426319  1
  Si  Si798  1  0.429758  0.260559  0.361089  1
  Si  Si799  1  0.346916  0.161522  0.476747  1
  Si  Si800  1  0.346925  0.161534  0.310657  1
  Si  Si801  1  0.148479  0.142197  0.477144  1
  Si  Si802  1  0.148489  0.142190  0.310268  1
  Si  Si803  1  0.070274  0.039050  0.361058  1
  Si  Si804  1  0.070286  0.039048  0.426353  1
  Si  Si805  1  0.429655  0.181601  0.426429  1
  Si  Si806  1  0.429661  0.181597  0.360983  1
  Si  Si807  1  0.070426  0.117887  0.426461  1
  Si  Si808  1  0.070419  0.117888  0.360950  1
  Si  Si809  1  0.429706  0.257818  0.259557  1
  Si  Si810  1  0.070463  0.038852  0.259564  1
  Si  Si811  1  0.429499  0.178809  0.259559  1
  Si  Si812  1  0.070667  0.117819  0.259566  1
  Si  Si813  1  0.150590  0.341291  0.477257  1
  Si  Si814  1  0.150579  0.341287  0.310147  1
  Si  Si815  1  0.146787  0.466291  0.476953  1
  Si  Si816  1  0.146776  0.466290  0.310450  1
  Si  Si817  1  0.070351  0.362555  0.426428  1
  Si  Si818  1  0.070333  0.362552  0.360974  1
  Si  Si819  1  0.226231  0.404534  0.494642  1
  Si  Si820  1  0.226223  0.404531  0.292769  1
  Si  Si821  1  0.070260  0.441584  0.426299  1
  Si  Si822  1  0.070236  0.441582  0.361100  1
  Si  Si823  1  0.234417  0.523914  0.494921  1
  Si  Si824  1  0.234431  0.523909  0.292502  1
  Si  Si825  1  0.360167  0.428252  0.494916  1
  Si  Si826  1  0.360162  0.428245  0.292506  1
  Si  Si827  1  0.365308  0.503766  0.476773  1
  Si  Si828  1  0.365317  0.503755  0.310655  1
  Si  Si829  1  0.236504  0.602528  0.494821  1
  Si  Si830  1  0.236516  0.602524  0.292615  1
  Si  Si831  1  0.430209  0.360853  0.494725  1
  Si  Si832  1  0.430198  0.360843  0.292681  1
  Si  Si833  1  0.153048  0.661521  0.310671  1
  Si  Si834  1  0.153048  0.661529  0.476762  1
  Si  Si835  1  0.351496  0.642199  0.310282  1
  Si  Si836  1  0.351494  0.642195  0.477154  1
  Si  Si837  1  0.429701  0.539054  0.426361  1
  Si  Si838  1  0.429696  0.539053  0.361067  1
  Si  Si839  1  0.429564  0.617891  0.360962  1
  Si  Si840  1  0.429567  0.617893  0.426473  1
  Si  Si841  1  0.070170  0.362976  0.259561  1
  Si  Si842  1  0.069704  0.442817  0.259559  1
  Si  Si843  1  0.429497  0.538861  0.259577  1
  Si  Si844  1  0.429310  0.617827  0.259579  1
  Si  Si845  1  0.349391  0.841282  0.310163  1
  Si  Si846  1  0.349403  0.841277  0.477266  1
  Si  Si847  1  0.353158  0.966278  0.310460  1
  Si  Si848  1  0.353165  0.966278  0.476968  1
  Si  Si849  1  0.429632  0.862546  0.360990  1
  Si  Si850  1  0.429661  0.862545  0.426444  1
  Si  Si851  1  0.273728  0.904514  0.292772  1
  Si  Si852  1  0.273733  0.904511  0.494644  1
  Si  Si853  1  0.267950  0.780731  0.292479  1
  Si  Si854  1  0.267958  0.780730  0.494957  1
  Si  Si855  1  0.429675  0.941575  0.361119  1
  Si  Si856  1  0.429708  0.941574  0.426317  1
  Si  Si857  1  0.139799  0.928242  0.292501  1
  Si  Si858  1  0.139799  0.928233  0.494912  1
  Si  Si859  1  0.133971  0.794343  0.309998  1
  Si  Si860  1  0.133971  0.794328  0.477447  1
  Si  Si861  1  0.267782  0.701842  0.292595  1
  Si  Si862  1  0.267788  0.701842  0.494840  1
  Si  Si863  1  0.069744  0.860848  0.292695  1
  Si  Si864  1  0.069744  0.860838  0.494740  1
  Si  Si865  1  0.070222  0.760564  0.361106  1
  Si  Si866  1  0.070222  0.760553  0.426336  1
  Si  Si867  1  0.070314  0.681601  0.360991  1
  Si  Si868  1  0.070316  0.681591  0.426437  1
  Si  Si869  1  0.429800  0.862968  0.259576  1
  Si  Si870  1  0.430250  0.942809  0.259577  1
  Si  Si871  1  0.070263  0.757815  0.259587  1
  Si  Si872  1  0.070467  0.678805  0.259579  1
  Si  Si873  1  0.767980  0.280725  0.292470  1
  Si  Si874  1  0.767988  0.280723  0.494947  1
  Si  Si875  1  0.734450  0.023906  0.494919  1
  Si  Si876  1  0.734447  0.023906  0.292499  1
  Si  Si877  1  0.634000  0.294336  0.309986  1
  Si  Si878  1  0.634007  0.294335  0.477433  1
  Si  Si879  1  0.767813  0.201837  0.292589  1
  Si  Si880  1  0.767822  0.201835  0.494834  1
  Si  Si881  1  0.865343  0.003759  0.476773  1
  Si  Si882  1  0.865333  0.003757  0.310656  1
  Si  Si883  1  0.736539  0.102520  0.494814  1
  Si  Si884  1  0.736535  0.102520  0.292607  1
  Si  Si885  1  0.570258  0.260556  0.361095  1
  Si  Si886  1  0.570252  0.260558  0.426325  1
  Si  Si887  1  0.653075  0.161519  0.310665  1
  Si  Si888  1  0.653083  0.161521  0.476756  1
  Si  Si889  1  0.851518  0.142191  0.310278  1
  Si  Si890  1  0.851529  0.142188  0.477151  1
  Si  Si891  1  0.929737  0.039048  0.426361  1
  Si  Si892  1  0.929726  0.039050  0.361066  1
  Si  Si893  1  0.570349  0.181594  0.360989  1
  Si  Si894  1  0.570344  0.181596  0.426435  1
  Si  Si895  1  0.929591  0.117889  0.360957  1
  Si  Si896  1  0.929598  0.117887  0.426469  1
  Si  Si897  1  0.570300  0.257814  0.259570  1
  Si  Si898  1  0.929530  0.038855  0.259577  1
  Si  Si899  1  0.570500  0.178804  0.259571  1
  Si  Si900  1  0.929341  0.117821  0.259578  1
  Si  Si901  1  0.849413  0.341276  0.310158  1
  Si  Si902  1  0.849419  0.341278  0.477264  1
  Si  Si903  1  0.853158  0.466278  0.310460  1
  Si  Si904  1  0.853170  0.466280  0.476965  1
  Si  Si905  1  0.929651  0.362541  0.360986  1
  Si  Si906  1  0.929670  0.362543  0.426440  1
  Si  Si907  1  0.773743  0.404508  0.292773  1
  Si  Si908  1  0.773749  0.404510  0.494645  1
  Si  Si909  1  0.929686  0.441570  0.361114  1
  Si  Si910  1  0.929710  0.441572  0.426313  1
  Si  Si911  1  0.765516  0.523903  0.292503  1
  Si  Si912  1  0.765526  0.523904  0.494923  1
  Si  Si913  1  0.639814  0.428238  0.292506  1
  Si  Si914  1  0.639820  0.428240  0.494917  1
  Si  Si915  1  0.634626  0.503750  0.310652  1
  Si  Si916  1  0.634636  0.503753  0.476773  1
  Si  Si917  1  0.763446  0.602516  0.292613  1
  Si  Si918  1  0.763451  0.602518  0.494819  1
  Si  Si919  1  0.569767  0.360841  0.292687  1
  Si  Si920  1  0.569778  0.360842  0.494731  1
  Si  Si921  1  0.846890  0.661526  0.476759  1
  Si  Si922  1  0.846888  0.661524  0.310671  1
  Si  Si923  1  0.648459  0.642183  0.477153  1
  Si  Si924  1  0.648456  0.642185  0.310276  1
  Si  Si925  1  0.570245  0.539045  0.361065  1
  Si  Si926  1  0.570250  0.539045  0.426360  1
  Si  Si927  1  0.570395  0.617884  0.426470  1
  Si  Si928  1  0.570392  0.617884  0.360959  1
  Si  Si929  1  0.929817  0.362972  0.259573  1
  Si  Si930  1  0.930251  0.442814  0.259575  1
  Si  Si931  1  0.570430  0.538845  0.259573  1
  Si  Si932  1  0.570636  0.617812  0.259575  1
  Si  Si933  1  0.650573  0.841291  0.477260  1
  Si  Si934  1  0.650556  0.841288  0.310150  1
  Si  Si935  1  0.646790  0.966293  0.476954  1
  Si  Si936  1  0.646771  0.966295  0.310451  1
  Si  Si937  1  0.570343  0.862559  0.426430  1
  Si  Si938  1  0.570314  0.862561  0.360976  1
  Si  Si939  1  0.726220  0.904531  0.494645  1
  Si  Si940  1  0.726205  0.904530  0.292774  1
  Si  Si941  1  0.731976  0.780727  0.494953  1
  Si  Si942  1  0.731980  0.780726  0.292475  1
  Si  Si943  1  0.570259  0.941589  0.426300  1
  Si  Si944  1  0.570225  0.941590  0.361102  1
  Si  Si945  1  0.860157  0.928249  0.494922  1
  Si  Si946  1  0.860143  0.928246  0.292512  1
  Si  Si947  1  0.865962  0.794331  0.477444  1
  Si  Si948  1  0.865958  0.794335  0.309998  1
  Si  Si949  1  0.732148  0.701839  0.494836  1
  Si  Si950  1  0.732149  0.701838  0.292591  1
  Si  Si951  1  0.930175  0.860842  0.494741  1
  Si  Si952  1  0.930174  0.860844  0.292697  1
  Si  Si953  1  0.929723  0.760555  0.426336  1
  Si  Si954  1  0.929721  0.760565  0.361106  1
  Si  Si955  1  0.929628  0.681592  0.426437  1
  Si  Si956  1  0.929625  0.681603  0.360992  1
  Si  Si957  1  0.570154  0.862980  0.259563  1
  Si  Si958  1  0.569703  0.942822  0.259560  1
  Si  Si959  1  0.929669  0.757816  0.259584  1
  Si  Si960  1  0.929465  0.678807  0.259577  1
  Si  Si961  1  0.232011  0.280731  0.560743  1
  Si  Si962  1  0.265544  0.023912  0.560777  1
  Si  Si963  1  0.365997  0.294327  0.578256  1
  Si  Si964  1  0.232179  0.201843  0.560859  1
  Si  Si965  1  0.134655  0.003757  0.578923  1
  Si  Si966  1  0.263481  0.102526  0.560879  1
  Si  Si967  1  0.429758  0.260559  0.629368  1
  Si  Si968  1  0.346925  0.161534  0.578936  1
  Si  Si969  1  0.148489  0.142190  0.578547  1
  Si  Si970  1  0.070274  0.039050  0.629337  1
  Si  Si971  1  0.429661  0.181597  0.629262  1
  Si  Si972  1  0.070419  0.117888  0.629229  1
  Si  Si973  1  0.429706  0.257818  0.527836  1
  Si  Si974  1  0.070463  0.038852  0.527842  1
  Si  Si975  1  0.429499  0.178809  0.527837  1
  Si  Si976  1  0.070667  0.117819  0.527845  1
  Si  Si977  1  0.150579  0.341287  0.578426  1
  Si  Si978  1  0.146776  0.466290  0.578729  1
  Si  Si979  1  0.070333  0.362552  0.629253  1
  Si  Si980  1  0.226223  0.404531  0.561048  1
  Si  Si981  1  0.070236  0.441582  0.629379  1
  Si  Si982  1  0.234431  0.523909  0.560780  1
  Si  Si983  1  0.360162  0.428245  0.560784  1
  Si  Si984  1  0.365317  0.503755  0.578934  1
  Si  Si985  1  0.236516  0.602524  0.560894  1
  Si  Si986  1  0.430198  0.360843  0.560960  1
  Si  Si987  1  0.153048  0.661521  0.578949  1
  Si  Si988  1  0.351496  0.642199  0.578561  1
  Si  Si989  1  0.429696  0.539053  0.629346  1
  Si  Si990  1  0.429564  0.617891  0.629240  1
  Si  Si991  1  0.070170  0.362976  0.527840  1
  Si  Si992  1  0.069704  0.442817  0.527838  1
  Si  Si993  1  0.429497  0.538861  0.527855  1
  Si  Si994  1  0.429310  0.617827  0.527858  1
  Si  Si995  1  0.349391  0.841282  0.578441  1
  Si  Si996  1  0.353158  0.966278  0.578739  1
  Si  Si997  1  0.273728  0.904514  0.561051  1
  Si  Si998  1  0.267950  0.780731  0.560758  1
  Si  Si999  1  0.139799  0.928242  0.560779  1
  Si  Si1000  1  0.133971  0.794343  0.578277  1
  Si  Si1001  1  0.267782  0.701842  0.560873  1
  Si  Si1002  1  0.069744  0.860848  0.560974  1
  Si  Si1003  1  0.070222  0.760564  0.629385  1
  Si  Si1004  1  0.070314  0.681601  0.629270  1
  Si  Si1005  1  0.429800  0.862968  0.527855  1
  Si  Si1006  1  0.430250  0.942809  0.527856  1
  Si  Si1007  1  0.070263  0.757815  0.527866  1
  Si  Si1008  1  0.070467  0.678805  0.527858  1
  Si  Si1009  1  0.767980  0.280725  0.560749  1
  Si  Si1010  1  0.734447  0.023906  0.560778  1
  Si  Si1011  1  0.634000  0.294336  0.578264  1
  Si  Si1012  1  0.767813  0.201837  0.560868  1
  Si  Si1013  1  0.865333  0.003757  0.578935  1
  Si  Si1014  1  0.736535  0.102520  0.560886  1
  Si  Si1015  1  0.570258  0.260556  0.629374  1
  Si  Si1016  1  0.653075  0.161519  0.578944  1
  Si  Si1017  1  0.851518  0.142191  0.578557  1
  Si  Si1018  1  0.929726  0.039050  0.629345  1
  Si  Si1019  1  0.570349  0.181594  0.629268  1
  Si  Si1020  1  0.929591  0.117889  0.629236  1
  Si  Si1021  1  0.570300  0.257814  0.527848  1
  Si  Si1022  1  0.929530  0.038855  0.527856  1
  Si  Si1023  1  0.570500  0.178804  0.527850  1
  Si  Si1024  1  0.929341  0.117821  0.527857  1
  Si  Si1025  1  0.849413  0.341276  0.578437  1
  Si  Si1026  1  0.853158  0.466278  0.578739  1
  Si  Si1027  1  0.929651  0.362541  0.629265  1
  Si  Si1028  1  0.773743  0.404508  0.561052  1
  Si  Si1029  1  0.929686  0.441570  0.629393  1
  Si  Si1030  1  0.765516  0.523903  0.560782  1
  Si  Si1031  1  0.639814  0.428238  0.560785  1
  Si  Si1032  1  0.634626  0.503750  0.578931  1
  Si  Si1033  1  0.763446  0.602516  0.560892  1
  Si  Si1034  1  0.569767  0.360841  0.560965  1
  Si  Si1035  1  0.846888  0.661524  0.578950  1
  Si  Si1036  1  0.648456  0.642185  0.578555  1
  Si  Si1037  1  0.570245  0.539045  0.629344  1
  Si  Si1038  1  0.570392  0.617884  0.629238  1
  Si  Si1039  1  0.929817  0.362972  0.527852  1
  Si  Si1040  1  0.930251  0.442814  0.527854  1
  Si  Si1041  1  0.570430  0.538845  0.527852  1
  Si  Si1042  1  0.570636  0.617812  0.527854  1
  Si  Si1043  1  0.650556  0.841288  0.578429  1
  Si  Si1044  1  0.646771  0.966295  0.578730  1
  Si  Si1045  1  0.726205  0.904530  0.561052  1
  Si  Si1046  1  0.731980  0.780726  0.560754  1
  Si  Si1047  1  0.860143  0.928246  0.560791  1
  Si  Si1048  1  0.865958  0.794335  0.578277  1
  Si  Si1049  1  0.732149  0.701838  0.560869  1
  Si  Si1050  1  0.930174  0.860844  0.560976  1
  Si  Si1051  1  0.929721  0.760565  0.629385  1
  Si  Si1052  1  0.929625  0.681603  0.629270  1
  Si  Si1053  1  0.570154  0.862980  0.527841  1
  Si  Si1054  1  0.569703  0.942822  0.527839  1
  Si  Si1055  1  0.929669  0.757816  0.527862  1
  Si  Si1056  1  0.929465  0.678807  0.527855  1
  H  H1057  1  0.417661  0.267532  0.106293  1
  H  H1058  1  0.082404  0.032514  0.106294  1
  H  H1059  1  0.418155  0.174847  0.106295  1
  H  H1060  1  0.082125  0.124337  0.106294  1
  H  H1061  1  0.115815  0.344763  0.160526  1
  H  H1062  1  0.113249  0.461437  0.160171  1
  H  H1063  1  0.417575  0.532519  0.106304  1
  H  H1064  1  0.417865  0.624342  0.106306  1
  H  H1065  1  0.418053  0.855786  0.106307  1
  H  H1066  1  0.417471  0.948254  0.106309  1
  H  H1067  1  0.082319  0.767526  0.106311  1
  H  H1068  1  0.081815  0.674838  0.106302  1
  H  H1069  1  0.582351  0.267526  0.106299  1
  H  H1070  1  0.917609  0.032514  0.106303  1
  H  H1071  1  0.581849  0.174841  0.106302  1
  H  H1072  1  0.917894  0.124337  0.106303  1
  H  H1073  1  0.884219  0.344744  0.160538  1
  H  H1074  1  0.886726  0.461423  0.160189  1
  H  H1075  1  0.582369  0.532509  0.106302  1
  H  H1076  1  0.582096  0.624333  0.106304  1
  H  H1077  1  0.581927  0.855803  0.106291  1
  H  H1078  1  0.582458  0.948270  0.106289  1
  H  H1079  1  0.917627  0.767528  0.106311  1
  H  H1080  1  0.918126  0.674841  0.106303  1
  H  H1081  1  0.417661  0.267532  0.681114  1
  H  H1082  1  0.082404  0.032514  0.681116  1
  H  H1083  1  0.418155  0.174847  0.681117  1
  H  H1084  1  0.082125  0.124337  0.681116  1
  H  H1085  1  0.081941  0.355797  0.681111  1
  H  H1086  1  0.082464  0.448264  0.681109  1
  H  H1087  1  0.417575  0.532519  0.681126  1
  H  H1088  1  0.417865  0.624342  0.681128  1
  H  H1089  1  0.384174  0.844750  0.626892  1
  H  H1090  1  0.386679  0.961421  0.627245  1
  H  H1091  1  0.082319  0.767526  0.681133  1
  H  H1092  1  0.081815  0.674838  0.681124  1
  H  H1093  1  0.582351  0.267526  0.681121  1
  H  H1094  1  0.917609  0.032514  0.681125  1
  H  H1095  1  0.581849  0.174841  0.681123  1
  H  H1096  1  0.917894  0.124337  0.681124  1
  H  H1097  1  0.918066  0.355782  0.681124  1
  H  H1098  1  0.917479  0.448249  0.681125  1
  H  H1099  1  0.582369  0.532509  0.681123  1
  H  H1100  1  0.582096  0.624333  0.681125  1
  H  H1101  1  0.615765  0.844764  0.626876  1
  H  H1102  1  0.613198  0.961446  0.627225  1
  H  H1103  1  0.917627  0.767528  0.681133  1
  H  H1104  1  0.918126  0.674841  0.681124  1
