# generated using pymatgen
data_Si50H6O103
_symmetry_space_group_name_H-M   'P 1'
_cell_length_a   21.88992159
_cell_length_b   39.14737771
_cell_length_c   52.14403843
_cell_angle_alpha   90.00000000
_cell_angle_beta   90.00000000
_cell_angle_gamma   90.00000000
_symmetry_Int_Tables_number   1
_chemical_formula_structural   Si50H6O103
_chemical_formula_sum   'Si400 H48 O824'
_cell_volume   44683.948768
_cell_formula_units_Z   8
loop_
 _symmetry_equiv_pos_site_id
 _symmetry_equiv_pos_as_xyz
  1  'x, y, z'
loop_
 _atom_site_type_symbol
 _atom_site_label
 _atom_site_symmetry_multiplicity
 _atom_site_fract_x
 _atom_site_fract_y
 _atom_site_fract_z
 _atom_site_occupancy
  O  O1  1  0.181872  0.305580  0.242337  1
  O  O2  1  0.317780  0.000000  0.242220  1
  O  O3  1  0.295660  0.291226  0.242185  1
  O  O4  1  0.222266  0.241314  0.248757  1
  O  O5  1  0.274157  0.063275  0.249100  1
  O  O6  1  0.203097  0.013323  0.241274  1
  O  O7  1  0.398648  0.272506  0.258622  1
  O  O8  1  0.387795  0.280331  0.210916  1
  O  O9  1  0.387806  0.280316  0.113239  1
  O  O10  1  0.295055  0.189027  0.241729  1
  O  O11  1  0.179782  0.178018  0.242403  1
  O  O12  1  0.110056  0.017312  0.113541  1
  O  O13  1  0.110070  0.017307  0.210622  1
  O  O14  1  0.098013  0.022123  0.258642  1
  O  O15  1  0.200887  0.115078  0.241636  1
  O  O16  1  0.314829  0.126019  0.241591  1
  O  O17  1  0.417661  0.267532  0.162081  1
  O  O18  1  0.422077  0.221124  0.195652  1
  O  O19  1  0.422087  0.221119  0.128514  1
  O  O20  1  0.421930  0.218385  0.283077  1
  O  O21  1  0.382189  0.164797  0.210653  1
  O  O22  1  0.382193  0.164797  0.113509  1
  O  O23  1  0.395922  0.165742  0.258629  1
  O  O24  1  0.114764  0.137151  0.210777  1
  O  O25  1  0.114763  0.137148  0.113387  1
  O  O26  1  0.100547  0.134133  0.258823  1
  O  O27  1  -0.000000  0.032548  0.196094  1
  O  O28  1  0.082404  0.032514  0.162082  1
  O  O29  1  0.079469  0.078441  0.128012  1
  O  O30  1  0.079483  0.078439  0.196153  1
  O  O31  1  -0.000000  0.124634  0.127519  1
  O  O32  1  0.389882  0.331891  0.241078  1
  O  O33  1  0.418155  0.174847  0.162083  1
  O  O34  1  0.082125  0.124337  0.162082  1
  O  O35  1  -0.000000  0.124630  0.196652  1
  O  O36  1  0.499997  0.174305  0.196970  1
  O  O37  1  0.101627  0.348087  0.258721  1
  O  O38  1  0.115815  0.344763  0.211007  1
  O  O39  1  0.115789  0.344759  0.113148  1
  O  O40  1  0.199757  0.370377  0.241601  1
  O  O41  1  0.113249  0.461437  0.210687  1
  O  O42  1  0.113210  0.461437  0.113463  1
  O  O43  1  0.098479  0.459543  0.258723  1
  O  O44  1  0.182165  0.500627  0.242219  1
  O  O45  1  0.191910  0.435882  0.241503  1
  O  O46  1  -0.000000  0.355452  0.196781  1
  O  O47  1  0.081941  0.355797  0.162078  1
  O  O48  1  0.078234  0.402074  0.195805  1
  O  O49  1  0.078211  0.402072  0.128348  1
  O  O50  1  0.295445  0.412199  0.248115  1
  O  O51  1  0.082464  0.448264  0.162076  1
  O  O52  1  0.225795  0.563283  0.249111  1
  O  O53  1  0.296851  0.513335  0.241271  1
  O  O54  1  0.406709  0.398363  0.248052  1
  O  O55  1  0.371274  0.463864  0.240101  1
  O  O56  1  0.499975  0.532549  0.196098  1
  O  O57  1  0.389908  0.517320  0.210631  1
  O  O58  1  0.389905  0.517315  0.113551  1
  O  O59  1  0.401918  0.522151  0.258653  1
  O  O60  1  0.299078  0.615080  0.241643  1
  O  O61  1  0.185128  0.626027  0.241613  1
  O  O62  1  0.117777  0.664795  0.113519  1
  O  O63  1  0.117786  0.664791  0.210662  1
  O  O64  1  0.104041  0.665761  0.258640  1
  O  O65  1  0.385222  0.637155  0.113399  1
  O  O66  1  0.385223  0.637153  0.210788  1
  O  O67  1  0.399420  0.634130  0.258833  1
  O  O68  1  0.499969  0.532549  0.128082  1
  O  O69  1  0.417575  0.532519  0.162091  1
  O  O70  1  0.420513  0.578445  0.196162  1
  O  O71  1  0.420506  0.578445  0.128021  1
  O  O72  1  0.417865  0.624342  0.162093  1
  O  O73  1  0.499978  0.624632  0.127526  1
  O  O74  1  0.499982  0.624633  0.196658  1
  O  O75  1  0.499994  0.357288  0.246809  1
  O  O76  1  0.318106  0.805570  0.242346  1
  O  O77  1  0.398340  0.848073  0.258738  1
  O  O78  1  0.384174  0.844750  0.113165  1
  O  O79  1  0.384210  0.844744  0.211022  1
  O  O80  1  0.300230  0.870364  0.241598  1
  O  O81  1  0.386679  0.961421  0.113483  1
  O  O82  1  0.386724  0.961422  0.210707  1
  O  O83  1  0.401451  0.959540  0.258746  1
  O  O84  1  0.308044  0.935868  0.241514  1
  O  O85  1  0.499973  0.855457  0.127389  1
  O  O86  1  0.418053  0.855786  0.162094  1
  O  O87  1  0.421725  0.902064  0.128366  1
  O  O88  1  0.421759  0.902063  0.195823  1
  O  O89  1  0.204518  0.912172  0.248114  1
  O  O90  1  0.204310  0.791221  0.242203  1
  O  O91  1  0.277710  0.741310  0.248771  1
  O  O92  1  0.417471  0.948254  0.162095  1
  O  O93  1  0.093251  0.898344  0.248056  1
  O  O94  1  0.128696  0.963842  0.240091  1
  O  O95  1  0.110069  0.831871  0.241097  1
  O  O96  1  0.101336  0.772486  0.258646  1
  O  O97  1  0.112176  0.780330  0.113260  1
  O  O98  1  0.112178  0.780311  0.210938  1
  O  O99  1  0.204917  0.689029  0.241741  1
  O  O100  1  0.320194  0.678016  0.242414  1
  O  O101  1  0.082319  0.767526  0.162098  1
  O  O102  1  0.077894  0.721125  0.128522  1
  O  O103  1  0.077889  0.721113  0.195663  1
  O  O104  1  0.081815  0.674838  0.162089  1
  O  O105  1  0.499945  0.948537  0.127795  1
  O  O106  1  0.499984  0.948535  0.196378  1
  O  O107  1  0.818136  0.305566  0.242343  1
  O  O108  1  0.682193  -0.000000  0.242217  1
  O  O109  1  0.704345  0.291218  0.242189  1
  O  O110  1  0.777742  0.241303  0.248764  1
  O  O111  1  0.725828  0.063274  0.249108  1
  O  O112  1  0.796887  0.013331  0.241270  1
  O  O113  1  0.601372  0.272490  0.258633  1
  O  O114  1  0.612213  0.280319  0.113248  1
  O  O115  1  0.612205  0.280321  0.210926  1
  O  O116  1  0.704952  0.189021  0.241736  1
  O  O117  1  0.820228  0.178009  0.242411  1
  O  O118  1  0.889951  0.017312  0.210631  1
  O  O119  1  0.889930  0.017315  0.113551  1
  O  O120  1  0.901957  0.022142  0.258653  1
  O  O121  1  0.799115  0.115071  0.241639  1
  O  O122  1  0.685169  0.126019  0.241601  1
  O  O123  1  0.582351  0.267526  0.162087  1
  O  O124  1  0.577929  0.221117  0.128518  1
  O  O125  1  0.577922  0.221119  0.195657  1
  O  O126  1  0.617816  0.164788  0.113518  1
  O  O127  1  0.617810  0.164793  0.210660  1
  O  O128  1  0.604086  0.165746  0.258640  1
  O  O129  1  0.885242  0.137148  0.113396  1
  O  O130  1  0.885258  0.137147  0.210786  1
  O  O131  1  0.899453  0.134123  0.258831  1
  O  O132  1  0.917609  0.032514  0.162090  1
  O  O133  1  0.920546  0.078439  0.196160  1
  O  O134  1  0.920536  0.078442  0.128020  1
  O  O135  1  0.581849  0.174841  0.162089  1
  O  O136  1  0.917894  0.124337  0.162090  1
  O  O137  1  0.500009  0.267786  0.127862  1
  O  O138  1  0.610110  0.331878  0.241088  1
  O  O139  1  -0.000000  0.032549  0.128078  1
  O  O140  1  0.500006  0.174301  0.127200  1
  O  O141  1  0.500002  0.267791  0.196305  1
  O  O142  1  0.898359  0.348079  0.258734  1
  O  O143  1  0.884196  0.344743  0.113160  1
  O  O144  1  0.884219  0.344744  0.211018  1
  O  O145  1  0.800240  0.370361  0.241599  1
  O  O146  1  0.886693  0.461418  0.113479  1
  O  O147  1  0.886726  0.461423  0.210703  1
  O  O148  1  0.901461  0.459544  0.258742  1
  O  O149  1  0.817769  0.500612  0.242219  1
  O  O150  1  0.808062  0.435865  0.241513  1
  O  O151  1  0.918066  0.355782  0.162090  1
  O  O152  1  0.921739  0.402058  0.128362  1
  O  O153  1  0.921765  0.402061  0.195819  1
  O  O154  1  0.704537  0.412180  0.248116  1
  O  O155  1  0.917479  0.448249  0.162091  1
  O  O156  1  0.774162  0.563272  0.249112  1
  O  O157  1  0.703083  0.513336  0.241275  1
  O  O158  1  0.593279  0.398350  0.248056  1
  O  O159  1  0.628704  0.463849  0.240098  1
  O  O160  1  -0.000000  0.355450  0.127386  1
  O  O161  1  0.000000  0.448532  0.196375  1
  O  O162  1  0.610028  0.517306  0.113548  1
  O  O163  1  0.610037  0.517308  0.210629  1
  O  O164  1  0.597999  0.522126  0.258650  1
  O  O165  1  0.700874  0.615068  0.241644  1
  O  O166  1  0.814815  0.626020  0.241606  1
  O  O167  1  0.882156  0.664791  0.210661  1
  O  O168  1  0.882159  0.664798  0.113519  1
  O  O169  1  0.895893  0.665756  0.258640  1
  O  O170  1  0.614741  0.637142  0.210786  1
  O  O171  1  0.614734  0.637144  0.113395  1
  O  O172  1  0.600528  0.634116  0.258830  1
  O  O173  1  -0.000000  0.448529  0.127791  1
  O  O174  1  0.582369  0.532509  0.162089  1
  O  O175  1  0.579441  0.578436  0.128019  1
  O  O176  1  0.579445  0.578437  0.196160  1
  O  O177  1  0.582096  0.624333  0.162091  1
  O  O178  1  0.681841  0.805577  0.242345  1
  O  O179  1  0.601607  0.848092  0.258721  1
  O  O180  1  0.615806  0.844766  0.211008  1
  O  O181  1  0.615765  0.844764  0.113150  1
  O  O182  1  0.699749  0.870373  0.241607  1
  O  O183  1  0.613248  0.961442  0.210689  1
  O  O184  1  0.613198  0.961446  0.113464  1
  O  O185  1  0.598482  0.959550  0.258725  1
  O  O186  1  0.691897  0.935876  0.241503  1
  O  O187  1  0.500006  0.855455  0.196784  1
  O  O188  1  0.581927  0.855803  0.162079  1
  O  O189  1  0.578231  0.902078  0.195806  1
  O  O190  1  0.578195  0.902080  0.128349  1
  O  O191  1  0.795432  0.912202  0.248118  1
  O  O192  1  0.795624  0.791213  0.242196  1
  O  O193  1  0.722218  0.741307  0.248768  1
  O  O194  1  0.582458  0.948270  0.162077  1
  O  O195  1  0.906684  0.898352  0.248062  1
  O  O196  1  0.871292  0.963857  0.240105  1
  O  O197  1  0.889845  0.831878  0.241096  1
  O  O198  1  0.898601  0.772493  0.258645  1
  O  O199  1  0.887770  0.780316  0.210937  1
  O  O200  1  0.887762  0.780327  0.113260  1
  O  O201  1  0.795019  0.689025  0.241737  1
  O  O202  1  0.679748  0.678008  0.242414  1
  O  O203  1  0.917627  0.767528  0.162098  1
  O  O204  1  0.922054  0.721115  0.195663  1
  O  O205  1  0.922049  0.721126  0.128521  1
  O  O206  1  -0.000000  0.674296  0.196976  1
  O  O207  1  0.918126  0.674841  0.162090  1
  O  O208  1  -0.000000  0.857279  0.246821  1
  O  O209  1  -0.000000  0.767795  0.127876  1
  O  O210  1  0.000000  0.767785  0.196319  1
  O  O211  1  0.000000  0.674310  0.127204  1
  O  O212  1  0.181872  0.305580  0.484364  1
  O  O213  1  0.181869  0.305577  0.323850  1
  O  O214  1  0.317787  -0.000000  0.323978  1
  O  O215  1  0.317780  0.000000  0.484246  1
  O  O216  1  0.295660  0.291226  0.484211  1
  O  O217  1  0.295659  0.291212  0.324004  1
  O  O218  1  0.222266  0.241314  0.490783  1
  O  O219  1  0.222248  0.241311  0.317428  1
  O  O220  1  0.235196  0.286276  0.283093  1
  O  O221  1  0.274183  0.063280  0.317090  1
  O  O222  1  0.274157  0.063275  0.491127  1
  O  O223  1  0.261172  0.017703  0.283099  1
  O  O224  1  0.203106  0.013337  0.324926  1
  O  O225  1  0.203097  0.013323  0.483300  1
  O  O226  1  0.398648  0.272506  0.500649  1
  O  O227  1  0.398636  0.272487  0.307558  1
  O  O228  1  0.387795  0.280331  0.452943  1
  O  O229  1  0.387806  0.280316  0.355266  1
  O  O230  1  0.295055  0.189027  0.483756  1
  O  O231  1  0.295051  0.189031  0.324459  1
  O  O232  1  0.179782  0.178018  0.484429  1
  O  O233  1  0.179778  0.178014  0.323785  1
  O  O234  1  0.235679  0.196331  0.283093  1
  O  O235  1  0.110056  0.017312  0.355568  1
  O  O236  1  0.110070  0.017307  0.452649  1
  O  O237  1  0.098034  0.022138  0.307546  1
  O  O238  1  0.098013  0.022123  0.500669  1
  O  O239  1  0.200908  0.115077  0.324558  1
  O  O240  1  0.200887  0.115078  0.483663  1
  O  O241  1  0.260614  0.108623  0.283094  1
  O  O242  1  0.314852  0.126029  0.324588  1
  O  O243  1  0.314829  0.126019  0.483618  1
  O  O244  1  0.417661  0.267532  0.404108  1
  O  O245  1  0.422077  0.221124  0.437679  1
  O  O246  1  0.422087  0.221119  0.370540  1
  O  O247  1  0.082847  0.078270  0.283087  1
  O  O248  1  0.421930  0.218385  0.525104  1
  O  O249  1  0.382189  0.164797  0.452680  1
  O  O250  1  0.382193  0.164797  0.355535  1
  O  O251  1  0.395922  0.165742  0.500656  1
  O  O252  1  0.395929  0.165767  0.307559  1
  O  O253  1  0.114764  0.137151  0.452804  1
  O  O254  1  0.114763  0.137148  0.355414  1
  O  O255  1  0.100547  0.134133  0.500850  1
  O  O256  1  0.100564  0.134119  0.307370  1
  O  O257  1  0.389876  0.331874  0.325103  1
  O  O258  1  -0.000000  0.032548  0.438120  1
  O  O259  1  0.082404  0.032514  0.404109  1
  O  O260  1  0.079469  0.078441  0.370038  1
  O  O261  1  0.079483  0.078439  0.438180  1
  O  O262  1  -0.000000  0.124634  0.369546  1
  O  O263  1  0.389882  0.331891  0.483105  1
  O  O264  1  0.418155  0.174847  0.404109  1
  O  O265  1  0.082125  0.124337  0.404109  1
  O  O266  1  -0.000000  0.124630  0.438679  1
  O  O267  1  -0.000000  0.123162  0.283104  1
  O  O268  1  0.499999  0.171202  0.283093  1
  O  O269  1  0.499997  0.174305  0.438997  1
  O  O270  1  0.101627  0.348087  0.500748  1
  O  O271  1  0.101632  0.348082  0.307459  1
  O  O272  1  0.115815  0.344763  0.453033  1
  O  O273  1  0.115789  0.344759  0.355175  1
  O  O274  1  0.199757  0.370377  0.483628  1
  O  O275  1  0.199748  0.370373  0.324588  1
  O  O276  1  0.113249  0.461437  0.452714  1
  O  O277  1  0.113210  0.461437  0.355490  1
  O  O278  1  0.098479  0.459543  0.500750  1
  O  O279  1  0.098496  0.459552  0.307449  1
  O  O280  1  0.182165  0.500627  0.484246  1
  O  O281  1  0.182174  0.500623  0.323979  1
  O  O282  1  0.191910  0.435882  0.483530  1
  O  O283  1  0.191895  0.435877  0.324688  1
  O  O284  1  0.499975  0.623162  0.283105  1
  O  O285  1  -0.000000  0.355452  0.438808  1
  O  O286  1  0.081941  0.355797  0.404105  1
  O  O287  1  0.078234  0.402074  0.437832  1
  O  O288  1  0.078211  0.402072  0.370375  1
  O  O289  1  0.295445  0.412199  0.490141  1
  O  O290  1  0.295435  0.412196  0.318082  1
  O  O291  1  0.218602  0.403918  0.283096  1
  O  O292  1  0.082464  0.448264  0.404103  1
  O  O293  1  0.417124  0.578279  0.283112  1
  O  O294  1  0.077596  0.402863  0.283093  1
  O  O295  1  0.225795  0.563283  0.491138  1
  O  O296  1  0.225815  0.563277  0.317099  1
  O  O297  1  0.238792  0.517703  0.283101  1
  O  O298  1  0.296851  0.513335  0.483297  1
  O  O299  1  0.296864  0.513325  0.324929  1
  O  O300  1  0.406709  0.398363  0.490078  1
  O  O301  1  0.406693  0.398349  0.318144  1
  O  O302  1  0.361985  0.435136  0.283101  1
  O  O303  1  0.371274  0.463864  0.482128  1
  O  O304  1  0.371279  0.463853  0.326106  1
  O  O305  1  0.499962  0.533281  0.283098  1
  O  O306  1  0.499975  0.532549  0.438124  1
  O  O307  1  0.389908  0.517320  0.452657  1
  O  O308  1  0.389905  0.517315  0.355578  1
  O  O309  1  0.401918  0.522151  0.500680  1
  O  O310  1  0.401941  0.522137  0.307557  1
  O  O311  1  0.299078  0.615080  0.483670  1
  O  O312  1  0.299089  0.615078  0.324569  1
  O  O313  1  0.239373  0.608626  0.283107  1
  O  O314  1  0.185128  0.626027  0.483639  1
  O  O315  1  0.185141  0.626020  0.324607  1
  O  O316  1  0.424344  0.355976  0.283093  1
  O  O317  1  0.499981  0.357283  0.319383  1
  O  O318  1  0.117777  0.664795  0.355546  1
  O  O319  1  0.117786  0.664791  0.452689  1
  O  O320  1  0.104047  0.665738  0.307567  1
  O  O321  1  0.104041  0.665761  0.500666  1
  O  O322  1  0.385222  0.637155  0.355426  1
  O  O323  1  0.385223  0.637153  0.452815  1
  O  O324  1  0.399425  0.634139  0.307380  1
  O  O325  1  0.399420  0.634130  0.500860  1
  O  O326  1  0.499969  0.532549  0.370109  1
  O  O327  1  0.417575  0.532519  0.404118  1
  O  O328  1  0.420513  0.578445  0.438189  1
  O  O329  1  0.420506  0.578445  0.370048  1
  O  O330  1  0.417865  0.624342  0.404120  1
  O  O331  1  0.499978  0.624632  0.369552  1
  O  O332  1  0.499982  0.624633  0.438685  1
  O  O333  1  0.499994  0.357288  0.488836  1
  O  O334  1  0.318101  0.805572  0.323864  1
  O  O335  1  0.318106  0.805570  0.484372  1
  O  O336  1  0.398348  0.848076  0.307476  1
  O  O337  1  0.398340  0.848073  0.500765  1
  O  O338  1  0.384174  0.844750  0.355191  1
  O  O339  1  0.384210  0.844744  0.453049  1
  O  O340  1  0.300220  0.870367  0.324601  1
  O  O341  1  0.300230  0.870364  0.483625  1
  O  O342  1  0.386679  0.961421  0.355510  1
  O  O343  1  0.386724  0.961422  0.452734  1
  O  O344  1  0.401474  0.959533  0.307473  1
  O  O345  1  0.401451  0.959540  0.500773  1
  O  O346  1  0.308034  0.935872  0.324683  1
  O  O347  1  0.308044  0.935868  0.483540  1
  O  O348  1  0.499973  0.855457  0.369415  1
  O  O349  1  0.418053  0.855786  0.404120  1
  O  O350  1  0.421725  0.902064  0.370393  1
  O  O351  1  0.421759  0.902063  0.437849  1
  O  O352  1  0.204513  0.912178  0.318080  1
  O  O353  1  0.204518  0.912172  0.490141  1
  O  O354  1  0.281352  0.903886  0.283098  1
  O  O355  1  0.204306  0.791228  0.324014  1
  O  O356  1  0.204310  0.791221  0.484229  1
  O  O357  1  0.277697  0.741311  0.317444  1
  O  O358  1  0.277710  0.741310  0.490798  1
  O  O359  1  0.264783  0.786275  0.283107  1
  O  O360  1  0.417471  0.948254  0.404122  1
  O  O361  1  0.093247  0.898358  0.318145  1
  O  O362  1  0.093251  0.898344  0.490083  1
  O  O363  1  0.137985  0.935127  0.283096  1
  O  O364  1  0.128704  0.963855  0.326097  1
  O  O365  1  0.128696  0.963842  0.482117  1
  O  O366  1  0.110074  0.831887  0.325122  1
  O  O367  1  0.110069  0.831871  0.483123  1
  O  O368  1  0.101322  0.772499  0.307582  1
  O  O369  1  0.101336  0.772486  0.500673  1
  O  O370  1  0.112176  0.780330  0.355287  1
  O  O371  1  0.112178  0.780311  0.452965  1
  O  O372  1  0.204911  0.689025  0.324468  1
  O  O373  1  0.204917  0.689029  0.483768  1
  O  O374  1  0.320188  0.678019  0.323801  1
  O  O375  1  0.320194  0.678016  0.484441  1
  O  O376  1  0.264295  0.696329  0.283106  1
  O  O377  1  0.075601  0.855969  0.283107  1
  O  O378  1  0.078036  0.718381  0.283121  1
  O  O379  1  0.422366  0.902854  0.283105  1
  O  O380  1  0.082319  0.767526  0.404124  1
  O  O381  1  0.077894  0.721125  0.370549  1
  O  O382  1  0.077889  0.721113  0.437690  1
  O  O383  1  0.499979  0.855591  0.283098  1
  O  O384  1  0.081815  0.674838  0.404116  1
  O  O385  1  0.499945  0.948537  0.369821  1
  O  O386  1  0.499984  0.948535  0.438404  1
  O  O387  1  0.499974  0.949643  0.283096  1
  O  O388  1  0.818131  0.305566  0.323856  1
  O  O389  1  0.818136  0.305566  0.484370  1
  O  O390  1  0.682193  0.000000  0.484244  1
  O  O391  1  0.682189  0.000000  0.323979  1
  O  O392  1  0.704336  0.291224  0.324005  1
  O  O393  1  0.704345  0.291218  0.484216  1
  O  O394  1  0.777729  0.241305  0.317438  1
  O  O395  1  0.777742  0.241303  0.490791  1
  O  O396  1  0.764807  0.286267  0.283099  1
  O  O397  1  0.725828  0.063274  0.491134  1
  O  O398  1  0.725824  0.063274  0.317091  1
  O  O399  1  0.738817  0.017694  0.283099  1
  O  O400  1  0.796887  0.013331  0.483296  1
  O  O401  1  0.796883  0.013333  0.324930  1
  O  O402  1  0.601356  0.272492  0.307568  1
  O  O403  1  0.601372  0.272490  0.500659  1
  O  O404  1  0.612213  0.280319  0.355275  1
  O  O405  1  0.612205  0.280321  0.452952  1
  O  O406  1  0.704941  0.189021  0.324464  1
  O  O407  1  0.704952  0.189021  0.483763  1
  O  O408  1  0.820216  0.178012  0.323797  1
  O  O409  1  0.820228  0.178009  0.484437  1
  O  O410  1  0.764327  0.196323  0.283102  1
  O  O411  1  0.889951  0.017312  0.452658  1
  O  O412  1  0.889930  0.017315  0.355578  1
  O  O413  1  0.901957  0.022142  0.500680  1
  O  O414  1  0.901968  0.022130  0.307557  1
  O  O415  1  0.799115  0.115071  0.483666  1
  O  O416  1  0.799108  0.115072  0.324564  1
  O  O417  1  0.739399  0.108621  0.283100  1
  O  O418  1  0.685169  0.126019  0.483627  1
  O  O419  1  0.685157  0.126019  0.324597  1
  O  O420  1  0.582351  0.267526  0.404113  1
  O  O421  1  0.577929  0.221117  0.370544  1
  O  O422  1  0.577922  0.221119  0.437684  1
  O  O423  1  0.617816  0.164788  0.355544  1
  O  O424  1  0.617810  0.164793  0.452687  1
  O  O425  1  0.604068  0.165746  0.307568  1
  O  O426  1  0.604086  0.165746  0.500667  1
  O  O427  1  0.885242  0.137148  0.355423  1
  O  O428  1  0.885258  0.137147  0.452812  1
  O  O429  1  0.899450  0.134131  0.307378  1
  O  O430  1  0.899453  0.134123  0.500858  1
  O  O431  1  0.917609  0.032514  0.404117  1
  O  O432  1  0.920546  0.078439  0.438187  1
  O  O433  1  0.920536  0.078442  0.370047  1
  O  O434  1  0.581849  0.174841  0.404116  1
  O  O435  1  0.917894  0.124337  0.404116  1
  O  O436  1  0.917156  0.078273  0.283111  1
  O  O437  1  0.578073  0.218380  0.283101  1
  O  O438  1  0.500009  0.267786  0.369889  1
  O  O439  1  0.610110  0.331878  0.483114  1
  O  O440  1  -0.000000  0.032549  0.370105  1
  O  O441  1  0.610096  0.331878  0.325113  1
  O  O442  1  -0.000000  0.033282  0.283101  1
  O  O443  1  0.500006  0.174301  0.369227  1
  O  O444  1  0.500002  0.267791  0.438332  1
  O  O445  1  0.500003  0.265707  0.283094  1
  O  O446  1  0.898367  0.348077  0.307472  1
  O  O447  1  0.898359  0.348079  0.500761  1
  O  O448  1  0.884196  0.344743  0.355187  1
  O  O449  1  0.884219  0.344744  0.453045  1
  O  O450  1  0.800237  0.370359  0.324599  1
  O  O451  1  0.800240  0.370361  0.483625  1
  O  O452  1  0.886693  0.461418  0.355506  1
  O  O453  1  0.886726  0.461423  0.452729  1
  O  O454  1  0.901466  0.459542  0.307468  1
  O  O455  1  0.901461  0.459544  0.500768  1
  O  O456  1  0.817759  0.500610  0.323985  1
  O  O457  1  0.817769  0.500612  0.484246  1
  O  O458  1  0.808051  0.435864  0.324685  1
  O  O459  1  0.808062  0.435865  0.483540  1
  O  O460  1  0.918066  0.355782  0.404116  1
  O  O461  1  0.921739  0.402058  0.370389  1
  O  O462  1  0.921765  0.402061  0.437846  1
  O  O463  1  0.704530  0.412174  0.318084  1
  O  O464  1  0.704537  0.412180  0.490142  1
  O  O465  1  0.781366  0.403884  0.283099  1
  O  O466  1  0.917479  0.448249  0.404117  1
  O  O467  1  0.774153  0.563270  0.317097  1
  O  O468  1  0.774162  0.563272  0.491138  1
  O  O469  1  0.761158  0.517693  0.283102  1
  O  O470  1  0.703072  0.513334  0.324928  1
  O  O471  1  0.703083  0.513336  0.483302  1
  O  O472  1  0.593267  0.398349  0.318143  1
  O  O473  1  0.593279  0.398350  0.490083  1
  O  O474  1  0.638005  0.435129  0.283101  1
  O  O475  1  0.628700  0.463845  0.326107  1
  O  O476  1  0.628704  0.463849  0.482124  1
  O  O477  1  -0.000000  0.355450  0.369413  1
  O  O478  1  -0.000000  0.448532  0.438402  1
  O  O479  1  0.610028  0.517306  0.355575  1
  O  O480  1  0.610037  0.517308  0.452656  1
  O  O481  1  0.597985  0.522119  0.307553  1
  O  O482  1  0.597999  0.522126  0.500677  1
  O  O483  1  0.700869  0.615068  0.324565  1
  O  O484  1  0.700874  0.615068  0.483671  1
  O  O485  1  0.760590  0.608619  0.283106  1
  O  O486  1  0.814809  0.626019  0.324607  1
  O  O487  1  0.814815  0.626020  0.483633  1
  O  O488  1  0.575630  0.355966  0.283099  1
  O  O489  1  -0.000000  0.355592  0.283096  1
  O  O490  1  0.882156  0.664791  0.452688  1
  O  O491  1  0.882159  0.664798  0.355546  1
  O  O492  1  0.895893  0.665756  0.500666  1
  O  O493  1  0.895889  0.665747  0.307568  1
  O  O494  1  0.614741  0.637142  0.452813  1
  O  O495  1  0.614734  0.637144  0.355422  1
  O  O496  1  0.600528  0.634116  0.500857  1
  O  O497  1  0.600527  0.634118  0.307377  1
  O  O498  1  -0.000000  0.448529  0.369818  1
  O  O499  1  0.582369  0.532509  0.404116  1
  O  O500  1  0.579441  0.578436  0.370046  1
  O  O501  1  0.579445  0.578437  0.438186  1
  O  O502  1  0.582096  0.624333  0.404117  1
  O  O503  1  0.922374  0.402859  0.283104  1
  O  O504  1  -0.000000  0.449643  0.283098  1
  O  O505  1  0.582814  0.578263  0.283105  1
  O  O506  1  0.681841  0.805577  0.484372  1
  O  O507  1  0.681837  0.805574  0.323857  1
  O  O508  1  0.601607  0.848092  0.500748  1
  O  O509  1  0.601614  0.848083  0.307459  1
  O  O510  1  0.615806  0.844766  0.453034  1
  O  O511  1  0.615765  0.844764  0.355176  1
  O  O512  1  0.699749  0.870373  0.483634  1
  O  O513  1  0.699730  0.870372  0.324590  1
  O  O514  1  0.613248  0.961442  0.452715  1
  O  O515  1  0.613198  0.961446  0.355491  1
  O  O516  1  0.598482  0.959550  0.500752  1
  O  O517  1  0.598491  0.959559  0.307450  1
  O  O518  1  0.691897  0.935876  0.483530  1
  O  O519  1  0.691875  0.935875  0.324693  1
  O  O520  1  0.500006  0.855455  0.438811  1
  O  O521  1  0.581927  0.855803  0.404106  1
  O  O522  1  0.578231  0.902078  0.437833  1
  O  O523  1  0.578195  0.902080  0.370376  1
  O  O524  1  0.795432  0.912202  0.490145  1
  O  O525  1  0.795415  0.912199  0.318088  1
  O  O526  1  0.718589  0.903920  0.283099  1
  O  O527  1  0.795624  0.791213  0.484222  1
  O  O528  1  0.795623  0.791215  0.324016  1
  O  O529  1  0.722218  0.741307  0.490794  1
  O  O530  1  0.722221  0.741306  0.317439  1
  O  O531  1  0.735162  0.786270  0.283104  1
  O  O532  1  0.582458  0.948270  0.404104  1
  O  O533  1  0.921891  0.718382  0.283111  1
  O  O534  1  -0.000000  0.765710  0.283110  1
  O  O535  1  0.906684  0.898352  0.490089  1
  O  O536  1  0.906672  0.898351  0.318154  1
  O  O537  1  0.861968  0.935135  0.283107  1
  O  O538  1  0.871292  0.963857  0.482131  1
  O  O539  1  0.871271  0.963854  0.326110  1
  O  O540  1  0.889845  0.831878  0.483123  1
  O  O541  1  0.889846  0.831880  0.325121  1
  O  O542  1  0.898601  0.772493  0.500671  1
  O  O543  1  0.898608  0.772493  0.307581  1
  O  O544  1  0.887770  0.780316  0.452963  1
  O  O545  1  0.887762  0.780327  0.355286  1
  O  O546  1  0.795019  0.689025  0.483764  1
  O  O547  1  0.795019  0.689024  0.324468  1
  O  O548  1  0.679748  0.678008  0.484440  1
  O  O549  1  0.679748  0.678008  0.323794  1
  O  O550  1  0.735647  0.696326  0.283103  1
  O  O551  1  0.924315  0.855971  0.283108  1
  O  O552  1  0.917627  0.767528  0.404124  1
  O  O553  1  0.922054  0.721115  0.437689  1
  O  O554  1  0.922049  0.721126  0.370548  1
  O  O555  1  -0.000000  0.674296  0.439002  1
  O  O556  1  0.918126  0.674841  0.404116  1
  O  O557  1  0.577587  0.902867  0.283095  1
  O  O558  1  -0.000000  0.857288  0.319395  1
  O  O559  1  -0.000000  0.857279  0.488848  1
  O  O560  1  -0.000000  0.671202  0.283106  1
  O  O561  1  -0.000000  0.767795  0.369903  1
  O  O562  1  -0.000000  0.767785  0.438346  1
  O  O563  1  -0.000000  0.674310  0.369231  1
  O  O564  1  0.181869  0.305577  0.565877  1
  O  O565  1  0.317787  0.000000  0.566005  1
  O  O566  1  0.295659  0.291212  0.566031  1
  O  O567  1  0.222248  0.241311  0.559454  1
  O  O568  1  0.235196  0.286276  0.525120  1
  O  O569  1  0.274183  0.063280  0.559117  1
  O  O570  1  0.261172  0.017703  0.525125  1
  O  O571  1  0.203106  0.013337  0.566953  1
  O  O572  1  0.398636  0.272487  0.549584  1
  O  O573  1  0.387795  0.280331  0.694970  1
  O  O574  1  0.387806  0.280316  0.597292  1
  O  O575  1  0.295051  0.189031  0.566485  1
  O  O576  1  0.179778  0.178014  0.565811  1
  O  O577  1  0.235679  0.196331  0.525120  1
  O  O578  1  0.110056  0.017312  0.597594  1
  O  O579  1  0.110070  0.017307  0.694675  1
  O  O580  1  0.098034  0.022138  0.549573  1
  O  O581  1  0.200908  0.115077  0.566585  1
  O  O582  1  0.260614  0.108623  0.525121  1
  O  O583  1  0.314852  0.126029  0.566615  1
  O  O584  1  0.417661  0.267532  0.646134  1
  O  O585  1  0.422077  0.221124  0.679705  1
  O  O586  1  0.422087  0.221119  0.612567  1
  O  O587  1  0.082847  0.078270  0.525114  1
  O  O588  1  0.382189  0.164797  0.694707  1
  O  O589  1  0.382193  0.164797  0.597562  1
  O  O590  1  0.395929  0.165767  0.549586  1
  O  O591  1  0.114764  0.137151  0.694831  1
  O  O592  1  0.114763  0.137148  0.597440  1
  O  O593  1  0.100564  0.134119  0.549396  1
  O  O594  1  0.389876  0.331874  0.567129  1
  O  O595  1  -0.000000  0.032548  0.680147  1
  O  O596  1  0.082404  0.032514  0.646135  1
  O  O597  1  0.079469  0.078441  0.612065  1
  O  O598  1  0.079483  0.078439  0.680206  1
  O  O599  1  -0.000000  0.124634  0.611573  1
  O  O600  1  0.418155  0.174847  0.646136  1
  O  O601  1  0.082125  0.124337  0.646136  1
  O  O602  1  -0.000000  0.124630  0.680706  1
  O  O603  1  -0.000000  0.123162  0.525131  1
  O  O604  1  0.499999  0.171202  0.525119  1
  O  O605  1  0.499997  0.174305  0.681024  1
  O  O606  1  0.101632  0.348082  0.549485  1
  O  O607  1  0.115815  0.344763  0.695060  1
  O  O608  1  0.115789  0.344759  0.597202  1
  O  O609  1  0.199748  0.370373  0.566615  1
  O  O610  1  0.113249  0.461437  0.694741  1
  O  O611  1  0.113210  0.461437  0.597517  1
  O  O612  1  0.098496  0.459552  0.549476  1
  O  O613  1  0.182174  0.500623  0.566006  1
  O  O614  1  0.191895  0.435877  0.566715  1
  O  O615  1  0.499975  0.623162  0.525132  1
  O  O616  1  -0.000000  0.355452  0.680835  1
  O  O617  1  0.081941  0.355797  0.646131  1
  O  O618  1  0.078234  0.402074  0.679858  1
  O  O619  1  0.078211  0.402072  0.612402  1
  O  O620  1  0.295435  0.412196  0.560109  1
  O  O621  1  0.218602  0.403918  0.525122  1
  O  O622  1  0.082464  0.448264  0.646130  1
  O  O623  1  0.417124  0.578279  0.525139  1
  O  O624  1  0.077596  0.402863  0.525119  1
  O  O625  1  0.225815  0.563277  0.559125  1
  O  O626  1  0.238792  0.517703  0.525127  1
  O  O627  1  0.296864  0.513325  0.566956  1
  O  O628  1  0.406693  0.398349  0.560171  1
  O  O629  1  0.361985  0.435136  0.525128  1
  O  O630  1  0.371279  0.463853  0.568133  1
  O  O631  1  0.499962  0.533281  0.525125  1
  O  O632  1  0.499975  0.532549  0.680151  1
  O  O633  1  0.389908  0.517320  0.694684  1
  O  O634  1  0.389905  0.517315  0.597605  1
  O  O635  1  0.401941  0.522137  0.549584  1
  O  O636  1  0.299089  0.615078  0.566596  1
  O  O637  1  0.239373  0.608626  0.525134  1
  O  O638  1  0.185141  0.626020  0.566634  1
  O  O639  1  0.424344  0.355976  0.525120  1
  O  O640  1  0.499981  0.357283  0.561409  1
  O  O641  1  0.117777  0.664795  0.597572  1
  O  O642  1  0.117786  0.664791  0.694716  1
  O  O643  1  0.104047  0.665738  0.549594  1
  O  O644  1  0.385222  0.637155  0.597452  1
  O  O645  1  0.385223  0.637153  0.694842  1
  O  O646  1  0.399425  0.634139  0.549407  1
  O  O647  1  0.499969  0.532549  0.612135  1
  O  O648  1  0.417575  0.532519  0.646144  1
  O  O649  1  0.420513  0.578445  0.680215  1
  O  O650  1  0.420506  0.578445  0.612075  1
  O  O651  1  0.417865  0.624342  0.646147  1
  O  O652  1  0.499978  0.624632  0.611579  1
  O  O653  1  0.499982  0.624633  0.680712  1
  O  O654  1  0.318101  0.805572  0.565891  1
  O  O655  1  0.398348  0.848076  0.549502  1
  O  O656  1  0.384174  0.844750  0.597218  1
  O  O657  1  0.384210  0.844744  0.695075  1
  O  O658  1  0.300220  0.870367  0.566627  1
  O  O659  1  0.386679  0.961421  0.597536  1
  O  O660  1  0.386724  0.961422  0.694760  1
  O  O661  1  0.401474  0.959533  0.549500  1
  O  O662  1  0.308034  0.935872  0.566709  1
  O  O663  1  0.499973  0.855457  0.611442  1
  O  O664  1  0.418053  0.855786  0.646147  1
  O  O665  1  0.421725  0.902064  0.612420  1
  O  O666  1  0.421759  0.902063  0.679876  1
  O  O667  1  0.204513  0.912178  0.560107  1
  O  O668  1  0.281352  0.903886  0.525125  1
  O  O669  1  0.204306  0.791228  0.566041  1
  O  O670  1  0.277697  0.741311  0.559471  1
  O  O671  1  0.264783  0.786275  0.525134  1
  O  O672  1  0.417471  0.948254  0.646148  1
  O  O673  1  0.093247  0.898358  0.560172  1
  O  O674  1  0.137985  0.935127  0.525122  1
  O  O675  1  0.128704  0.963855  0.568124  1
  O  O676  1  0.110074  0.831887  0.567149  1
  O  O677  1  0.101322  0.772499  0.549608  1
  O  O678  1  0.112176  0.780330  0.597313  1
  O  O679  1  0.112178  0.780311  0.694991  1
  O  O680  1  0.204911  0.689025  0.566495  1
  O  O681  1  0.320188  0.678019  0.565828  1
  O  O682  1  0.264295  0.696329  0.525133  1
  O  O683  1  0.075601  0.855969  0.525134  1
  O  O684  1  0.078036  0.718381  0.525147  1
  O  O685  1  0.422366  0.902854  0.525131  1
  O  O686  1  0.082319  0.767526  0.646151  1
  O  O687  1  0.077894  0.721125  0.612575  1
  O  O688  1  0.077889  0.721113  0.679716  1
  O  O689  1  0.499979  0.855591  0.525125  1
  O  O690  1  0.081815  0.674838  0.646143  1
  O  O691  1  0.499945  0.948537  0.611848  1
  O  O692  1  0.499984  0.948535  0.680431  1
  O  O693  1  0.499974  0.949643  0.525123  1
  O  O694  1  0.818131  0.305566  0.565883  1
  O  O695  1  0.682189  0.000000  0.566006  1
  O  O696  1  0.704336  0.291224  0.566031  1
  O  O697  1  0.777729  0.241305  0.559464  1
  O  O698  1  0.764807  0.286267  0.525125  1
  O  O699  1  0.725824  0.063274  0.559118  1
  O  O700  1  0.738817  0.017694  0.525126  1
  O  O701  1  0.796883  0.013333  0.566957  1
  O  O702  1  0.601356  0.272492  0.549595  1
  O  O703  1  0.612213  0.280319  0.597301  1
  O  O704  1  0.612205  0.280321  0.694979  1
  O  O705  1  0.704941  0.189021  0.566491  1
  O  O706  1  0.820216  0.178012  0.565824  1
  O  O707  1  0.764327  0.196323  0.525128  1
  O  O708  1  0.889951  0.017312  0.694685  1
  O  O709  1  0.889930  0.017315  0.597604  1
  O  O710  1  0.901968  0.022130  0.549583  1
  O  O711  1  0.799108  0.115072  0.566591  1
  O  O712  1  0.739399  0.108621  0.525127  1
  O  O713  1  0.685157  0.126019  0.566623  1
  O  O714  1  0.582351  0.267526  0.646140  1
  O  O715  1  0.577929  0.221117  0.612571  1
  O  O716  1  0.577922  0.221119  0.679711  1
  O  O717  1  0.617816  0.164788  0.597571  1
  O  O718  1  0.617810  0.164793  0.694714  1
  O  O719  1  0.604068  0.165746  0.549594  1
  O  O720  1  0.885242  0.137148  0.597450  1
  O  O721  1  0.885258  0.137147  0.694839  1
  O  O722  1  0.899450  0.134131  0.549405  1
  O  O723  1  0.917609  0.032514  0.646143  1
  O  O724  1  0.920546  0.078439  0.680214  1
  O  O725  1  0.920536  0.078442  0.612073  1
  O  O726  1  0.581849  0.174841  0.646142  1
  O  O727  1  0.917894  0.124337  0.646143  1
  O  O728  1  0.917156  0.078273  0.525138  1
  O  O729  1  0.578073  0.218380  0.525127  1
  O  O730  1  0.500009  0.267786  0.611915  1
  O  O731  1  -0.000000  0.032549  0.612132  1
  O  O732  1  0.610096  0.331878  0.567140  1
  O  O733  1  -0.000000  0.033282  0.525128  1
  O  O734  1  0.500006  0.174301  0.611254  1
  O  O735  1  0.500002  0.267791  0.680358  1
  O  O736  1  0.500003  0.265707  0.525121  1
  O  O737  1  0.898367  0.348077  0.549499  1
  O  O738  1  0.884196  0.344743  0.597214  1
  O  O739  1  0.884219  0.344744  0.695072  1
  O  O740  1  0.800237  0.370359  0.566626  1
  O  O741  1  0.886693  0.461418  0.597533  1
  O  O742  1  0.886726  0.461423  0.694756  1
  O  O743  1  0.901466  0.459542  0.549495  1
  O  O744  1  0.817759  0.500610  0.566012  1
  O  O745  1  0.808051  0.435864  0.566712  1
  O  O746  1  0.918066  0.355782  0.646143  1
  O  O747  1  0.921739  0.402058  0.612416  1
  O  O748  1  0.921765  0.402061  0.679872  1
  O  O749  1  0.704530  0.412174  0.560111  1
  O  O750  1  0.781366  0.403884  0.525126  1
  O  O751  1  0.917479  0.448249  0.646144  1
  O  O752  1  0.774153  0.563270  0.559123  1
  O  O753  1  0.761158  0.517693  0.525129  1
  O  O754  1  0.703072  0.513334  0.566954  1
  O  O755  1  0.593267  0.398349  0.560170  1
  O  O756  1  0.638005  0.435129  0.525128  1
  O  O757  1  0.628700  0.463845  0.568134  1
  O  O758  1  -0.000000  0.355450  0.611440  1
  O  O759  1  -0.000000  0.448532  0.680428  1
  O  O760  1  0.610028  0.517306  0.597601  1
  O  O761  1  0.610037  0.517308  0.694683  1
  O  O762  1  0.597985  0.522119  0.549580  1
  O  O763  1  0.700869  0.615068  0.566592  1
  O  O764  1  0.760590  0.608619  0.525132  1
  O  O765  1  0.814809  0.626019  0.566633  1
  O  O766  1  0.575630  0.355966  0.525126  1
  O  O767  1  -0.000000  0.355592  0.525123  1
  O  O768  1  0.882156  0.664791  0.694715  1
  O  O769  1  0.882159  0.664798  0.597573  1
  O  O770  1  0.895889  0.665747  0.549595  1
  O  O771  1  0.614741  0.637142  0.694839  1
  O  O772  1  0.614734  0.637144  0.597448  1
  O  O773  1  0.600527  0.634118  0.549404  1
  O  O774  1  -0.000000  0.448529  0.611845  1
  O  O775  1  0.582369  0.532509  0.646142  1
  O  O776  1  0.579441  0.578436  0.612073  1
  O  O777  1  0.579445  0.578437  0.680213  1
  O  O778  1  0.582096  0.624333  0.646144  1
  O  O779  1  0.922374  0.402859  0.525131  1
  O  O780  1  -0.000000  0.449643  0.525125  1
  O  O781  1  0.582814  0.578263  0.525132  1
  O  O782  1  0.681837  0.805574  0.565884  1
  O  O783  1  0.601614  0.848083  0.549486  1
  O  O784  1  0.615806  0.844766  0.695061  1
  O  O785  1  0.615765  0.844764  0.597203  1
  O  O786  1  0.699730  0.870372  0.566617  1
  O  O787  1  0.613248  0.961442  0.694742  1
  O  O788  1  0.613198  0.961446  0.597518  1
  O  O789  1  0.598491  0.959559  0.549477  1
  O  O790  1  0.691875  0.935875  0.566720  1
  O  O791  1  0.500006  0.855455  0.680837  1
  O  O792  1  0.581927  0.855803  0.646132  1
  O  O793  1  0.578231  0.902078  0.679860  1
  O  O794  1  0.578195  0.902080  0.612402  1
  O  O795  1  0.795415  0.912199  0.560115  1
  O  O796  1  0.718589  0.903920  0.525126  1
  O  O797  1  0.795623  0.791215  0.566043  1
  O  O798  1  0.722221  0.741306  0.559466  1
  O  O799  1  0.735162  0.786270  0.525130  1
  O  O800  1  0.582458  0.948270  0.646131  1
  O  O801  1  0.921891  0.718382  0.525137  1
  O  O802  1  -0.000000  0.765710  0.525137  1
  O  O803  1  0.906672  0.898351  0.560180  1
  O  O804  1  0.861968  0.935135  0.525133  1
  O  O805  1  0.871271  0.963854  0.568137  1
  O  O806  1  0.889846  0.831880  0.567148  1
  O  O807  1  0.898608  0.772493  0.549607  1
  O  O808  1  0.887770  0.780316  0.694990  1
  O  O809  1  0.887762  0.780327  0.597313  1
  O  O810  1  0.795019  0.689024  0.566495  1
  O  O811  1  0.679748  0.678008  0.565820  1
  O  O812  1  0.735647  0.696326  0.525130  1
  O  O813  1  0.924315  0.855971  0.525135  1
  O  O814  1  0.917627  0.767528  0.646151  1
  O  O815  1  0.922054  0.721115  0.679716  1
  O  O816  1  0.922049  0.721126  0.612575  1
  O  O817  1  -0.000000  0.674296  0.681029  1
  O  O818  1  0.918126  0.674841  0.646143  1
  O  O819  1  0.577587  0.902867  0.525122  1
  O  O820  1  -0.000000  0.857288  0.561421  1
  O  O821  1  0.000000  0.671202  0.525132  1
  O  O822  1  -0.000000  0.767795  0.611930  1
  O  O823  1  -0.000000  0.767785  0.680372  1
  O  O824  1  -0.000000  0.674310  0.611258  1
  Si  Si825  1  0.232017  0.280734  0.253412  1
  Si  Si826  1  0.265533  0.023907  0.253391  1
  Si  Si827  1  0.365995  0.294345  0.237609  1
  Si  Si828  1  0.232186  0.201845  0.253307  1
  Si  Si829  1  0.134649  0.003745  0.237015  1
  Si  Si830  1  0.263462  0.102521  0.253291  1
  Si  Si831  1  0.429752  0.260563  0.191505  1
  Si  Si832  1  0.429758  0.260559  0.132658  1
  Si  Si833  1  0.346916  0.161522  0.236998  1
  Si  Si834  1  0.148479  0.142197  0.237356  1
  Si  Si835  1  0.070274  0.039050  0.132630  1
  Si  Si836  1  0.070286  0.039048  0.191535  1
  Si  Si837  1  0.429655  0.181601  0.191603  1
  Si  Si838  1  0.429661  0.181597  0.132562  1
  Si  Si839  1  0.070426  0.117887  0.191633  1
  Si  Si840  1  0.070419  0.117888  0.132532  1
  Si  Si841  1  0.150590  0.341291  0.237458  1
  Si  Si842  1  0.146787  0.466291  0.237184  1
  Si  Si843  1  0.070351  0.362555  0.191603  1
  Si  Si844  1  0.070333  0.362552  0.132554  1
  Si  Si845  1  0.226231  0.404534  0.253142  1
  Si  Si846  1  0.070260  0.441584  0.191486  1
  Si  Si847  1  0.070236  0.441582  0.132668  1
  Si  Si848  1  0.234417  0.523914  0.253394  1
  Si  Si849  1  0.360167  0.428252  0.253389  1
  Si  Si850  1  0.365308  0.503766  0.237022  1
  Si  Si851  1  0.236504  0.602528  0.253304  1
  Si  Si852  1  0.430209  0.360853  0.253217  1
  Si  Si853  1  0.153048  0.661529  0.237012  1
  Si  Si854  1  0.351494  0.642195  0.237365  1
  Si  Si855  1  0.429701  0.539054  0.191543  1
  Si  Si856  1  0.429696  0.539053  0.132638  1
  Si  Si857  1  0.429564  0.617891  0.132543  1
  Si  Si858  1  0.429567  0.617893  0.191643  1
  Si  Si859  1  0.349403  0.841277  0.237466  1
  Si  Si860  1  0.353165  0.966278  0.237198  1
  Si  Si861  1  0.429632  0.862546  0.132568  1
  Si  Si862  1  0.429661  0.862545  0.191617  1
  Si  Si863  1  0.273733  0.904511  0.253144  1
  Si  Si864  1  0.267958  0.780730  0.253426  1
  Si  Si865  1  0.429675  0.941575  0.132685  1
  Si  Si866  1  0.429708  0.941574  0.191503  1
  Si  Si867  1  0.139799  0.928233  0.253385  1
  Si  Si868  1  0.133971  0.794328  0.237630  1
  Si  Si869  1  0.267788  0.701842  0.253320  1
  Si  Si870  1  0.069744  0.860838  0.253230  1
  Si  Si871  1  0.070222  0.760564  0.132673  1
  Si  Si872  1  0.070222  0.760553  0.191520  1
  Si  Si873  1  0.070314  0.681601  0.132570  1
  Si  Si874  1  0.070316  0.681591  0.191611  1
  Si  Si875  1  0.767988  0.280723  0.253418  1
  Si  Si876  1  0.734450  0.023906  0.253392  1
  Si  Si877  1  0.634007  0.294335  0.237617  1
  Si  Si878  1  0.767822  0.201835  0.253315  1
  Si  Si879  1  0.865343  0.003759  0.237022  1
  Si  Si880  1  0.736539  0.102520  0.253297  1
  Si  Si881  1  0.570258  0.260556  0.132663  1
  Si  Si882  1  0.570252  0.260558  0.191510  1
  Si  Si883  1  0.653083  0.161521  0.237006  1
  Si  Si884  1  0.851529  0.142188  0.237362  1
  Si  Si885  1  0.929737  0.039048  0.191542  1
  Si  Si886  1  0.929726  0.039050  0.132637  1
  Si  Si887  1  0.570349  0.181594  0.132568  1
  Si  Si888  1  0.570344  0.181596  0.191609  1
  Si  Si889  1  0.929591  0.117889  0.132539  1
  Si  Si890  1  0.929598  0.117887  0.191640  1
  Si  Si891  1  0.849419  0.341278  0.237464  1
  Si  Si892  1  0.853170  0.466280  0.237195  1
  Si  Si893  1  0.929651  0.362541  0.132565  1
  Si  Si894  1  0.929670  0.362543  0.191613  1
  Si  Si895  1  0.773749  0.404510  0.253145  1
  Si  Si896  1  0.929686  0.441570  0.132680  1
  Si  Si897  1  0.929710  0.441572  0.191499  1
  Si  Si898  1  0.765526  0.523904  0.253395  1
  Si  Si899  1  0.639820  0.428240  0.253390  1
  Si  Si900  1  0.634636  0.503753  0.237021  1
  Si  Si901  1  0.763451  0.602518  0.253302  1
  Si  Si902  1  0.569778  0.360842  0.253222  1
  Si  Si903  1  0.846890  0.661526  0.237009  1
  Si  Si904  1  0.648459  0.642183  0.237365  1
  Si  Si905  1  0.570245  0.539045  0.132636  1
  Si  Si906  1  0.570250  0.539045  0.191542  1
  Si  Si907  1  0.570395  0.617884  0.191641  1
  Si  Si908  1  0.570392  0.617884  0.132540  1
  Si  Si909  1  0.650573  0.841291  0.237461  1
  Si  Si910  1  0.646790  0.966293  0.237185  1
  Si  Si911  1  0.570343  0.862559  0.191604  1
  Si  Si912  1  0.570314  0.862561  0.132556  1
  Si  Si913  1  0.726220  0.904531  0.253145  1
  Si  Si914  1  0.731976  0.780727  0.253422  1
  Si  Si915  1  0.570259  0.941589  0.191488  1
  Si  Si916  1  0.570225  0.941590  0.132670  1
  Si  Si917  1  0.860157  0.928249  0.253395  1
  Si  Si918  1  0.865962  0.794331  0.237627  1
  Si  Si919  1  0.732148  0.701839  0.253317  1
  Si  Si920  1  0.930175  0.860842  0.253231  1
  Si  Si921  1  0.929723  0.760555  0.191520  1
  Si  Si922  1  0.929721  0.760565  0.132673  1
  Si  Si923  1  0.929628  0.681592  0.191611  1
  Si  Si924  1  0.929625  0.681603  0.132570  1
  Si  Si925  1  0.232017  0.280734  0.495439  1
  Si  Si926  1  0.232011  0.280731  0.312774  1
  Si  Si927  1  0.265544  0.023912  0.312806  1
  Si  Si928  1  0.265533  0.023907  0.495417  1
  Si  Si929  1  0.365995  0.294345  0.479635  1
  Si  Si930  1  0.365997  0.294327  0.328574  1
  Si  Si931  1  0.232186  0.201845  0.495334  1
  Si  Si932  1  0.232179  0.201843  0.312879  1
  Si  Si933  1  0.134655  0.003757  0.329176  1
  Si  Si934  1  0.134649  0.003745  0.479042  1
  Si  Si935  1  0.263481  0.102526  0.312898  1
  Si  Si936  1  0.263462  0.102521  0.495317  1
  Si  Si937  1  0.429752  0.260563  0.433531  1
  Si  Si938  1  0.429758  0.260559  0.374684  1
  Si  Si939  1  0.346916  0.161522  0.479025  1
  Si  Si940  1  0.346925  0.161534  0.329187  1
  Si  Si941  1  0.148479  0.142197  0.479383  1
  Si  Si942  1  0.148489  0.142190  0.328836  1
  Si  Si943  1  0.070274  0.039050  0.374657  1
  Si  Si944  1  0.070286  0.039048  0.433562  1
  Si  Si945  1  0.429655  0.181601  0.433630  1
  Si  Si946  1  0.429661  0.181597  0.374589  1
  Si  Si947  1  0.070426  0.117887  0.433659  1
  Si  Si948  1  0.070419  0.117888  0.374559  1
  Si  Si949  1  0.429706  0.257818  0.283088  1
  Si  Si950  1  0.070463  0.038852  0.283094  1
  Si  Si951  1  0.429499  0.178809  0.283089  1
  Si  Si952  1  0.070667  0.117819  0.283096  1
  Si  Si953  1  0.150590  0.341291  0.479485  1
  Si  Si954  1  0.150579  0.341287  0.328727  1
  Si  Si955  1  0.146787  0.466291  0.479211  1
  Si  Si956  1  0.146776  0.466290  0.329000  1
  Si  Si957  1  0.070351  0.362555  0.433629  1
  Si  Si958  1  0.070333  0.362552  0.374581  1
  Si  Si959  1  0.226231  0.404534  0.495168  1
  Si  Si960  1  0.226223  0.404531  0.313050  1
  Si  Si961  1  0.070260  0.441584  0.433513  1
  Si  Si962  1  0.070236  0.441582  0.374695  1
  Si  Si963  1  0.234417  0.523914  0.495420  1
  Si  Si964  1  0.234431  0.523909  0.312809  1
  Si  Si965  1  0.360167  0.428252  0.495416  1
  Si  Si966  1  0.360162  0.428245  0.312812  1
  Si  Si967  1  0.365308  0.503766  0.479049  1
  Si  Si968  1  0.365317  0.503755  0.329186  1
  Si  Si969  1  0.236504  0.602528  0.495331  1
  Si  Si970  1  0.236516  0.602524  0.312911  1
  Si  Si971  1  0.430209  0.360853  0.495244  1
  Si  Si972  1  0.430198  0.360843  0.312971  1
  Si  Si973  1  0.153048  0.661521  0.329200  1
  Si  Si974  1  0.153048  0.661529  0.479039  1
  Si  Si975  1  0.351496  0.642199  0.328849  1
  Si  Si976  1  0.351494  0.642195  0.479392  1
  Si  Si977  1  0.429701  0.539054  0.433570  1
  Si  Si978  1  0.429696  0.539053  0.374665  1
  Si  Si979  1  0.429564  0.617891  0.374569  1
  Si  Si980  1  0.429567  0.617893  0.433670  1
  Si  Si981  1  0.070170  0.362976  0.283091  1
  Si  Si982  1  0.069704  0.442817  0.283090  1
  Si  Si983  1  0.429497  0.538861  0.283105  1
  Si  Si984  1  0.429310  0.617827  0.283108  1
  Si  Si985  1  0.349391  0.841282  0.328741  1
  Si  Si986  1  0.349403  0.841277  0.479493  1
  Si  Si987  1  0.353158  0.966278  0.329010  1
  Si  Si988  1  0.353165  0.966278  0.479225  1
  Si  Si989  1  0.429632  0.862546  0.374595  1
  Si  Si990  1  0.429661  0.862545  0.433644  1
  Si  Si991  1  0.273728  0.904514  0.313052  1
  Si  Si992  1  0.273733  0.904511  0.495171  1
  Si  Si993  1  0.267950  0.780731  0.312788  1
  Si  Si994  1  0.267958  0.780730  0.495453  1
  Si  Si995  1  0.429675  0.941575  0.374711  1
  Si  Si996  1  0.429708  0.941574  0.433530  1
  Si  Si997  1  0.139799  0.928242  0.312808  1
  Si  Si998  1  0.139799  0.928233  0.495412  1
  Si  Si999  1  0.133971  0.794343  0.328593  1
  Si  Si1000  1  0.133971  0.794328  0.479657  1
  Si  Si1001  1  0.267782  0.701842  0.312893  1
  Si  Si1002  1  0.267788  0.701842  0.495347  1
  Si  Si1003  1  0.069744  0.860848  0.312983  1
  Si  Si1004  1  0.069744  0.860838  0.495257  1
  Si  Si1005  1  0.070222  0.760564  0.374700  1
  Si  Si1006  1  0.070222  0.760553  0.433547  1
  Si  Si1007  1  0.070314  0.681601  0.374596  1
  Si  Si1008  1  0.070316  0.681591  0.433637  1
  Si  Si1009  1  0.429800  0.862968  0.283105  1
  Si  Si1010  1  0.430250  0.942809  0.283106  1
  Si  Si1011  1  0.070263  0.757815  0.283115  1
  Si  Si1012  1  0.070467  0.678805  0.283107  1
  Si  Si1013  1  0.767980  0.280725  0.312780  1
  Si  Si1014  1  0.767988  0.280723  0.495444  1
  Si  Si1015  1  0.734450  0.023906  0.495419  1
  Si  Si1016  1  0.734447  0.023906  0.312806  1
  Si  Si1017  1  0.634000  0.294336  0.328582  1
  Si  Si1018  1  0.634007  0.294335  0.479644  1
  Si  Si1019  1  0.767813  0.201837  0.312888  1
  Si  Si1020  1  0.767822  0.201835  0.495342  1
  Si  Si1021  1  0.865343  0.003759  0.479049  1
  Si  Si1022  1  0.865333  0.003757  0.329186  1
  Si  Si1023  1  0.736539  0.102520  0.495324  1
  Si  Si1024  1  0.736535  0.102520  0.312904  1
  Si  Si1025  1  0.570258  0.260556  0.374690  1
  Si  Si1026  1  0.570252  0.260558  0.433537  1
  Si  Si1027  1  0.653075  0.161519  0.329195  1
  Si  Si1028  1  0.653083  0.161521  0.479033  1
  Si  Si1029  1  0.851518  0.142191  0.328846  1
  Si  Si1030  1  0.851529  0.142188  0.479389  1
  Si  Si1031  1  0.929737  0.039048  0.433569  1
  Si  Si1032  1  0.929726  0.039050  0.374664  1
  Si  Si1033  1  0.570349  0.181594  0.374595  1
  Si  Si1034  1  0.570344  0.181596  0.433636  1
  Si  Si1035  1  0.929591  0.117889  0.374566  1
  Si  Si1036  1  0.929598  0.117887  0.433666  1
  Si  Si1037  1  0.570300  0.257814  0.283099  1
  Si  Si1038  1  0.929530  0.038855  0.283106  1
  Si  Si1039  1  0.570500  0.178804  0.283100  1
  Si  Si1040  1  0.929341  0.117821  0.283107  1
  Si  Si1041  1  0.849413  0.341276  0.328737  1
  Si  Si1042  1  0.849419  0.341278  0.479491  1
  Si  Si1043  1  0.853158  0.466278  0.329010  1
  Si  Si1044  1  0.853170  0.466280  0.479221  1
  Si  Si1045  1  0.929651  0.362541  0.374591  1
  Si  Si1046  1  0.929670  0.362543  0.433640  1
  Si  Si1047  1  0.773743  0.404508  0.313053  1
  Si  Si1048  1  0.773749  0.404510  0.495172  1
  Si  Si1049  1  0.929686  0.441570  0.374707  1
  Si  Si1050  1  0.929710  0.441572  0.433526  1
  Si  Si1051  1  0.765516  0.523903  0.312810  1
  Si  Si1052  1  0.765526  0.523904  0.495422  1
  Si  Si1053  1  0.639814  0.428238  0.312812  1
  Si  Si1054  1  0.639820  0.428240  0.495416  1
  Si  Si1055  1  0.634626  0.503750  0.329183  1
  Si  Si1056  1  0.634636  0.503753  0.479048  1
  Si  Si1057  1  0.763446  0.602516  0.312909  1
  Si  Si1058  1  0.763451  0.602518  0.495329  1
  Si  Si1059  1  0.569767  0.360841  0.312976  1
  Si  Si1060  1  0.569778  0.360842  0.495249  1
  Si  Si1061  1  0.846890  0.661526  0.479036  1
  Si  Si1062  1  0.846888  0.661524  0.329200  1
  Si  Si1063  1  0.648459  0.642183  0.479391  1
  Si  Si1064  1  0.648456  0.642185  0.328844  1
  Si  Si1065  1  0.570245  0.539045  0.374663  1
  Si  Si1066  1  0.570250  0.539045  0.433568  1
  Si  Si1067  1  0.570395  0.617884  0.433667  1
  Si  Si1068  1  0.570392  0.617884  0.374567  1
  Si  Si1069  1  0.929817  0.362972  0.283102  1
  Si  Si1070  1  0.930251  0.442814  0.283104  1
  Si  Si1071  1  0.570430  0.538845  0.283102  1
  Si  Si1072  1  0.570636  0.617812  0.283104  1
  Si  Si1073  1  0.650573  0.841291  0.479488  1
  Si  Si1074  1  0.650556  0.841288  0.328730  1
  Si  Si1075  1  0.646790  0.966293  0.479212  1
  Si  Si1076  1  0.646771  0.966295  0.329002  1
  Si  Si1077  1  0.570343  0.862559  0.433631  1
  Si  Si1078  1  0.570314  0.862561  0.374582  1
  Si  Si1079  1  0.726220  0.904531  0.495172  1
  Si  Si1080  1  0.726205  0.904530  0.313054  1
  Si  Si1081  1  0.731976  0.780727  0.495449  1
  Si  Si1082  1  0.731980  0.780726  0.312785  1
  Si  Si1083  1  0.570259  0.941589  0.433514  1
  Si  Si1084  1  0.570225  0.941590  0.374696  1
  Si  Si1085  1  0.860157  0.928249  0.495422  1
  Si  Si1086  1  0.860143  0.928246  0.312818  1
  Si  Si1087  1  0.865962  0.794331  0.479654  1
  Si  Si1088  1  0.865958  0.794335  0.328593  1
  Si  Si1089  1  0.732148  0.701839  0.495344  1
  Si  Si1090  1  0.732149  0.701838  0.312889  1
  Si  Si1091  1  0.930175  0.860842  0.495258  1
  Si  Si1092  1  0.930174  0.860844  0.312985  1
  Si  Si1093  1  0.929723  0.760555  0.433547  1
  Si  Si1094  1  0.929721  0.760565  0.374700  1
  Si  Si1095  1  0.929628  0.681592  0.433638  1
  Si  Si1096  1  0.929625  0.681603  0.374596  1
  Si  Si1097  1  0.570154  0.862980  0.283093  1
  Si  Si1098  1  0.569703  0.942822  0.283091  1
  Si  Si1099  1  0.929669  0.757816  0.283112  1
  Si  Si1100  1  0.929465  0.678807  0.283105  1
  Si  Si1101  1  0.232011  0.280731  0.554801  1
  Si  Si1102  1  0.265544  0.023912  0.554832  1
  Si  Si1103  1  0.365997  0.294327  0.570601  1
  Si  Si1104  1  0.232179  0.201843  0.554906  1
  Si  Si1105  1  0.134655  0.003757  0.571203  1
  Si  Si1106  1  0.263481  0.102526  0.554925  1
  Si  Si1107  1  0.429752  0.260563  0.675558  1
  Si  Si1108  1  0.429758  0.260559  0.616711  1
  Si  Si1109  1  0.346925  0.161534  0.571214  1
  Si  Si1110  1  0.148489  0.142190  0.570863  1
  Si  Si1111  1  0.070274  0.039050  0.616683  1
  Si  Si1112  1  0.070286  0.039048  0.675588  1
  Si  Si1113  1  0.429655  0.181601  0.675657  1
  Si  Si1114  1  0.429661  0.181597  0.616615  1
  Si  Si1115  1  0.070426  0.117887  0.675686  1
  Si  Si1116  1  0.070419  0.117888  0.616585  1
  Si  Si1117  1  0.429706  0.257818  0.525115  1
  Si  Si1118  1  0.070463  0.038852  0.525120  1
  Si  Si1119  1  0.429499  0.178809  0.525116  1
  Si  Si1120  1  0.070667  0.117819  0.525123  1
  Si  Si1121  1  0.150579  0.341287  0.570754  1
  Si  Si1122  1  0.146776  0.466290  0.571027  1
  Si  Si1123  1  0.070351  0.362555  0.675656  1
  Si  Si1124  1  0.070333  0.362552  0.616607  1
  Si  Si1125  1  0.226223  0.404531  0.555077  1
  Si  Si1126  1  0.070260  0.441584  0.675540  1
  Si  Si1127  1  0.070236  0.441582  0.616721  1
  Si  Si1128  1  0.234431  0.523909  0.554835  1
  Si  Si1129  1  0.360162  0.428245  0.554839  1
  Si  Si1130  1  0.365317  0.503755  0.571213  1
  Si  Si1131  1  0.236516  0.602524  0.554938  1
  Si  Si1132  1  0.430198  0.360843  0.554997  1
  Si  Si1133  1  0.153048  0.661521  0.571226  1
  Si  Si1134  1  0.351496  0.642199  0.570876  1
  Si  Si1135  1  0.429701  0.539054  0.675596  1
  Si  Si1136  1  0.429696  0.539053  0.616692  1
  Si  Si1137  1  0.429564  0.617891  0.616596  1
  Si  Si1138  1  0.429567  0.617893  0.675697  1
  Si  Si1139  1  0.070170  0.362976  0.525118  1
  Si  Si1140  1  0.069704  0.442817  0.525117  1
  Si  Si1141  1  0.429497  0.538861  0.525132  1
  Si  Si1142  1  0.429310  0.617827  0.525134  1
  Si  Si1143  1  0.349391  0.841282  0.570768  1
  Si  Si1144  1  0.353158  0.966278  0.571036  1
  Si  Si1145  1  0.429632  0.862546  0.616622  1
  Si  Si1146  1  0.429661  0.862545  0.675670  1
  Si  Si1147  1  0.273728  0.904514  0.555079  1
  Si  Si1148  1  0.267950  0.780731  0.554815  1
  Si  Si1149  1  0.429675  0.941575  0.616738  1
  Si  Si1150  1  0.429708  0.941574  0.675556  1
  Si  Si1151  1  0.139799  0.928242  0.554834  1
  Si  Si1152  1  0.133971  0.794343  0.570620  1
  Si  Si1153  1  0.267782  0.701842  0.554919  1
  Si  Si1154  1  0.069744  0.860848  0.555010  1
  Si  Si1155  1  0.070222  0.760564  0.616727  1
  Si  Si1156  1  0.070222  0.760553  0.675574  1
  Si  Si1157  1  0.070314  0.681601  0.616623  1
  Si  Si1158  1  0.070316  0.681591  0.675664  1
  Si  Si1159  1  0.429800  0.862968  0.525132  1
  Si  Si1160  1  0.430250  0.942809  0.525132  1
  Si  Si1161  1  0.070263  0.757815  0.525141  1
  Si  Si1162  1  0.070467  0.678805  0.525134  1
  Si  Si1163  1  0.767980  0.280725  0.554807  1
  Si  Si1164  1  0.734447  0.023906  0.554833  1
  Si  Si1165  1  0.634000  0.294336  0.570608  1
  Si  Si1166  1  0.767813  0.201837  0.554914  1
  Si  Si1167  1  0.865333  0.003757  0.571213  1
  Si  Si1168  1  0.736535  0.102520  0.554930  1
  Si  Si1169  1  0.570258  0.260556  0.616717  1
  Si  Si1170  1  0.570252  0.260558  0.675563  1
  Si  Si1171  1  0.653075  0.161519  0.571221  1
  Si  Si1172  1  0.851518  0.142191  0.570872  1
  Si  Si1173  1  0.929737  0.039048  0.675596  1
  Si  Si1174  1  0.929726  0.039050  0.616691  1
  Si  Si1175  1  0.570349  0.181594  0.616621  1
  Si  Si1176  1  0.570344  0.181596  0.675662  1
  Si  Si1177  1  0.929591  0.117889  0.616592  1
  Si  Si1178  1  0.929598  0.117887  0.675693  1
  Si  Si1179  1  0.570300  0.257814  0.525126  1
  Si  Si1180  1  0.929530  0.038855  0.525132  1
  Si  Si1181  1  0.570500  0.178804  0.525127  1
  Si  Si1182  1  0.929341  0.117821  0.525133  1
  Si  Si1183  1  0.849413  0.341276  0.570764  1
  Si  Si1184  1  0.853158  0.466278  0.571036  1
  Si  Si1185  1  0.929651  0.362541  0.616618  1
  Si  Si1186  1  0.929670  0.362543  0.675667  1
  Si  Si1187  1  0.773743  0.404508  0.555080  1
  Si  Si1188  1  0.929686  0.441570  0.616734  1
  Si  Si1189  1  0.929710  0.441572  0.675552  1
  Si  Si1190  1  0.765516  0.523903  0.554836  1
  Si  Si1191  1  0.639814  0.428238  0.554839  1
  Si  Si1192  1  0.634626  0.503750  0.571210  1
  Si  Si1193  1  0.763446  0.602516  0.554936  1
  Si  Si1194  1  0.569767  0.360841  0.555002  1
  Si  Si1195  1  0.846888  0.661524  0.571226  1
  Si  Si1196  1  0.648456  0.642185  0.570870  1
  Si  Si1197  1  0.570245  0.539045  0.616690  1
  Si  Si1198  1  0.570250  0.539045  0.675595  1
  Si  Si1199  1  0.570395  0.617884  0.675694  1
  Si  Si1200  1  0.570392  0.617884  0.616594  1
  Si  Si1201  1  0.929817  0.362972  0.525129  1
  Si  Si1202  1  0.930251  0.442814  0.525131  1
  Si  Si1203  1  0.570430  0.538845  0.525129  1
  Si  Si1204  1  0.570636  0.617812  0.525131  1
  Si  Si1205  1  0.650556  0.841288  0.570756  1
  Si  Si1206  1  0.646771  0.966295  0.571028  1
  Si  Si1207  1  0.570343  0.862559  0.675658  1
  Si  Si1208  1  0.570314  0.862561  0.616609  1
  Si  Si1209  1  0.726205  0.904530  0.555081  1
  Si  Si1210  1  0.731980  0.780726  0.554811  1
  Si  Si1211  1  0.570259  0.941589  0.675541  1
  Si  Si1212  1  0.570225  0.941590  0.616723  1
  Si  Si1213  1  0.860143  0.928246  0.554845  1
  Si  Si1214  1  0.865958  0.794335  0.570619  1
  Si  Si1215  1  0.732149  0.701838  0.554916  1
  Si  Si1216  1  0.930174  0.860844  0.555012  1
  Si  Si1217  1  0.929723  0.760555  0.675574  1
  Si  Si1218  1  0.929721  0.760565  0.616727  1
  Si  Si1219  1  0.929628  0.681592  0.675664  1
  Si  Si1220  1  0.929625  0.681603  0.616623  1
  Si  Si1221  1  0.570154  0.862980  0.525119  1
  Si  Si1222  1  0.569703  0.942822  0.525117  1
  Si  Si1223  1  0.929669  0.757816  0.525138  1
  Si  Si1224  1  0.929465  0.678807  0.525132  1
  H  H1225  1  0.387806  0.280316  0.095979  1
  H  H1226  1  0.110056  0.017312  0.096281  1
  H  H1227  1  0.382193  0.164797  0.096249  1
  H  H1228  1  0.114763  0.137148  0.096127  1
  H  H1229  1  0.115789  0.344759  0.095888  1
  H  H1230  1  0.113210  0.461437  0.096204  1
  H  H1231  1  0.389905  0.517315  0.096291  1
  H  H1232  1  0.117777  0.664795  0.096259  1
  H  H1233  1  0.385222  0.637155  0.096139  1
  H  H1234  1  0.384174  0.844750  0.095905  1
  H  H1235  1  0.386679  0.961421  0.096223  1
  H  H1236  1  0.112176  0.780330  0.096000  1
  H  H1237  1  0.612213  0.280319  0.095988  1
  H  H1238  1  0.889930  0.017315  0.096291  1
  H  H1239  1  0.617816  0.164788  0.096258  1
  H  H1240  1  0.885242  0.137148  0.096136  1
  H  H1241  1  0.884196  0.344743  0.095901  1
  H  H1242  1  0.886693  0.461418  0.096219  1
  H  H1243  1  0.610028  0.517306  0.096288  1
  H  H1244  1  0.882159  0.664798  0.096260  1
  H  H1245  1  0.614734  0.637144  0.096135  1
  H  H1246  1  0.615765  0.844764  0.095890  1
  H  H1247  1  0.613198  0.961446  0.096205  1
  H  H1248  1  0.887762  0.780327  0.096000  1
  H  H1249  1  0.387795  0.280331  0.712230  1
  H  H1250  1  0.110070  0.017307  0.711935  1
  H  H1251  1  0.382189  0.164797  0.711967  1
  H  H1252  1  0.114764  0.137151  0.712091  1
  H  H1253  1  0.115815  0.344763  0.712320  1
  H  H1254  1  0.113249  0.461437  0.712001  1
  H  H1255  1  0.389908  0.517320  0.711944  1
  H  H1256  1  0.117786  0.664791  0.711976  1
  H  H1257  1  0.385223  0.637153  0.712102  1
  H  H1258  1  0.384210  0.844744  0.712335  1
  H  H1259  1  0.386724  0.961422  0.712020  1
  H  H1260  1  0.112178  0.780311  0.712251  1
  H  H1261  1  0.612205  0.280321  0.712239  1
  H  H1262  1  0.889951  0.017312  0.711944  1
  H  H1263  1  0.617810  0.164793  0.711974  1
  H  H1264  1  0.885258  0.137147  0.712099  1
  H  H1265  1  0.884219  0.344744  0.712332  1
  H  H1266  1  0.886726  0.461423  0.712016  1
  H  H1267  1  0.610037  0.517308  0.711942  1
  H  H1268  1  0.882156  0.664791  0.711974  1
  H  H1269  1  0.614741  0.637142  0.712099  1
  H  H1270  1  0.615806  0.844766  0.712321  1
  H  H1271  1  0.613248  0.961442  0.712002  1
  H  H1272  1  0.887770  0.780316  0.712250  1
