# generated using pymatgen
data_Si38H6O79
_symmetry_space_group_name_H-M   'P 1'
_cell_length_a   21.88992159
_cell_length_b   39.14737771
_cell_length_c   41.97884430
_cell_angle_alpha   90.00000000
_cell_angle_beta   90.00000000
_cell_angle_gamma   90.00000000
_symmetry_Int_Tables_number   1
_chemical_formula_structural   Si38H6O79
_chemical_formula_sum   'Si304 H48 O632'
_cell_volume   35973.0581805
_cell_formula_units_Z   8
loop_
 _symmetry_equiv_pos_site_id
 _symmetry_equiv_pos_as_xyz
  1  'x, y, z'
loop_
 _atom_site_type_symbol
 _atom_site_label
 _atom_site_symmetry_multiplicity
 _atom_site_fract_x
 _atom_site_fract_y
 _atom_site_fract_z
 _atom_site_occupancy
  O  O1  1  0.181872  0.305580  0.179942  1
  O  O2  1  0.317780  -0.000000  0.179796  1
  O  O3  1  0.295660  0.291226  0.179753  1
  O  O4  1  0.222266  0.241314  0.187916  1
  O  O5  1  0.274157  0.063275  0.188342  1
  O  O6  1  0.203097  0.013323  0.178621  1
  O  O7  1  0.398648  0.272506  0.200170  1
  O  O8  1  0.387795  0.280331  0.140913  1
  O  O9  1  0.295055  0.189027  0.179187  1
  O  O10  1  0.179782  0.178018  0.180023  1
  O  O11  1  0.110070  0.017307  0.140547  1
  O  O12  1  0.098013  0.022123  0.200196  1
  O  O13  1  0.200887  0.115078  0.179071  1
  O  O14  1  0.314829  0.126019  0.179015  1
  O  O15  1  0.421930  0.218385  0.230548  1
  O  O16  1  0.382189  0.164797  0.140586  1
  O  O17  1  0.395922  0.165742  0.200179  1
  O  O18  1  0.114764  0.137151  0.140740  1
  O  O19  1  0.100547  0.134133  0.200420  1
  O  O20  1  0.389882  0.331891  0.178378  1
  O  O21  1  0.101627  0.348087  0.200293  1
  O  O22  1  0.115815  0.344763  0.141025  1
  O  O23  1  0.199757  0.370377  0.179028  1
  O  O24  1  0.113249  0.461437  0.140628  1
  O  O25  1  0.098479  0.459543  0.200296  1
  O  O26  1  0.182165  0.500627  0.179796  1
  O  O27  1  0.191910  0.435882  0.178906  1
  O  O28  1  0.295445  0.412199  0.187119  1
  O  O29  1  0.225795  0.563283  0.188356  1
  O  O30  1  0.296851  0.513335  0.178617  1
  O  O31  1  0.406709  0.398363  0.187040  1
  O  O32  1  0.371274  0.463864  0.177165  1
  O  O33  1  0.389908  0.517320  0.140558  1
  O  O34  1  0.401918  0.522151  0.200209  1
  O  O35  1  0.299078  0.615080  0.179080  1
  O  O36  1  0.185128  0.626027  0.179042  1
  O  O37  1  0.117786  0.664791  0.140597  1
  O  O38  1  0.104041  0.665761  0.200192  1
  O  O39  1  0.385223  0.637153  0.140754  1
  O  O40  1  0.399420  0.634130  0.200433  1
  O  O41  1  0.499994  0.357288  0.185497  1
  O  O42  1  0.318106  0.805570  0.179953  1
  O  O43  1  0.398340  0.848073  0.200314  1
  O  O44  1  0.384210  0.844744  0.141044  1
  O  O45  1  0.300230  0.870364  0.179024  1
  O  O46  1  0.386724  0.961422  0.140653  1
  O  O47  1  0.401451  0.959540  0.200324  1
  O  O48  1  0.308044  0.935868  0.178919  1
  O  O49  1  0.204518  0.912172  0.187118  1
  O  O50  1  0.204310  0.791221  0.179775  1
  O  O51  1  0.277710  0.741310  0.187934  1
  O  O52  1  0.093251  0.898344  0.187046  1
  O  O53  1  0.128696  0.963842  0.177152  1
  O  O54  1  0.110069  0.831871  0.178401  1
  O  O55  1  0.101336  0.772486  0.200200  1
  O  O56  1  0.112178  0.780311  0.140940  1
  O  O57  1  0.204917  0.689029  0.179202  1
  O  O58  1  0.320194  0.678016  0.180037  1
  O  O59  1  0.818136  0.305566  0.179950  1
  O  O60  1  0.682193  0.000000  0.179793  1
  O  O61  1  0.704345  0.291218  0.179759  1
  O  O62  1  0.777742  0.241303  0.187925  1
  O  O63  1  0.725828  0.063274  0.188352  1
  O  O64  1  0.796887  0.013331  0.178616  1
  O  O65  1  0.601372  0.272490  0.200183  1
  O  O66  1  0.612205  0.280321  0.140924  1
  O  O67  1  0.704952  0.189021  0.179195  1
  O  O68  1  0.820228  0.178009  0.180033  1
  O  O69  1  0.889951  0.017312  0.140558  1
  O  O70  1  0.901957  0.022142  0.200209  1
  O  O71  1  0.799115  0.115071  0.179075  1
  O  O72  1  0.685169  0.126019  0.179027  1
  O  O73  1  0.617810  0.164793  0.140595  1
  O  O74  1  0.604086  0.165746  0.200193  1
  O  O75  1  0.885258  0.137147  0.140751  1
  O  O76  1  0.899453  0.134123  0.200430  1
  O  O77  1  0.610110  0.331878  0.178390  1
  O  O78  1  0.898359  0.348079  0.200310  1
  O  O79  1  0.884219  0.344744  0.141039  1
  O  O80  1  0.800240  0.370361  0.179025  1
  O  O81  1  0.886726  0.461423  0.140647  1
  O  O82  1  0.901461  0.459544  0.200319  1
  O  O83  1  0.817769  0.500612  0.179795  1
  O  O84  1  0.808062  0.435865  0.178918  1
  O  O85  1  0.704537  0.412180  0.187120  1
  O  O86  1  0.774162  0.563272  0.188357  1
  O  O87  1  0.703083  0.513336  0.178623  1
  O  O88  1  0.593279  0.398350  0.187046  1
  O  O89  1  0.628704  0.463849  0.177160  1
  O  O90  1  0.610037  0.517308  0.140556  1
  O  O91  1  0.597999  0.522126  0.200206  1
  O  O92  1  0.700874  0.615068  0.179081  1
  O  O93  1  0.814815  0.626020  0.179034  1
  O  O94  1  0.882156  0.664791  0.140596  1
  O  O95  1  0.895893  0.665756  0.200192  1
  O  O96  1  0.614741  0.637142  0.140751  1
  O  O97  1  0.600528  0.634116  0.200429  1
  O  O98  1  0.681841  0.805577  0.179952  1
  O  O99  1  0.601607  0.848092  0.200293  1
  O  O100  1  0.615806  0.844766  0.141026  1
  O  O101  1  0.699749  0.870373  0.179035  1
  O  O102  1  0.613248  0.961442  0.140630  1
  O  O103  1  0.598482  0.959550  0.200299  1
  O  O104  1  0.691897  0.935876  0.178906  1
  O  O105  1  0.795432  0.912202  0.187123  1
  O  O106  1  0.795624  0.791213  0.179766  1
  O  O107  1  0.722218  0.741307  0.187930  1
  O  O108  1  0.906684  0.898352  0.187053  1
  O  O109  1  0.871292  0.963857  0.177169  1
  O  O110  1  0.889845  0.831878  0.178401  1
  O  O111  1  0.898601  0.772493  0.200198  1
  O  O112  1  0.887770  0.780316  0.140938  1
  O  O113  1  0.795019  0.689025  0.179197  1
  O  O114  1  0.679748  0.678008  0.180037  1
  O  O115  1  -0.000000  0.857279  0.185512  1
  O  O116  1  0.181872  0.305580  0.480576  1
  O  O117  1  0.181869  0.305577  0.281193  1
  O  O118  1  0.317787  0.000000  0.281353  1
  O  O119  1  0.317780  -0.000000  0.480430  1
  O  O120  1  0.295660  0.291226  0.480386  1
  O  O121  1  0.295659  0.291212  0.281384  1
  O  O122  1  0.222266  0.241314  0.488550  1
  O  O123  1  0.222248  0.241311  0.273216  1
  O  O124  1  0.235196  0.286276  0.230567  1
  O  O125  1  0.274183  0.063280  0.272796  1
  O  O126  1  0.274157  0.063275  0.488976  1
  O  O127  1  0.261172  0.017703  0.230574  1
  O  O128  1  0.203106  0.013337  0.282530  1
  O  O129  1  0.203097  0.013323  0.479255  1
  O  O130  1  0.398648  0.272506  0.500804  1
  O  O131  1  0.398636  0.272487  0.260956  1
  O  O132  1  0.387795  0.280331  0.441546  1
  O  O133  1  0.387806  0.280316  0.320216  1
  O  O134  1  0.295055  0.189027  0.479820  1
  O  O135  1  0.295051  0.189031  0.281949  1
  O  O136  1  0.179782  0.178018  0.480657  1
  O  O137  1  0.179778  0.178014  0.281112  1
  O  O138  1  0.235679  0.196331  0.230567  1
  O  O139  1  0.110056  0.017312  0.320591  1
  O  O140  1  0.110070  0.017307  0.441181  1
  O  O141  1  0.098034  0.022138  0.260941  1
  O  O142  1  0.098013  0.022123  0.500829  1
  O  O143  1  0.200908  0.115077  0.282073  1
  O  O144  1  0.200887  0.115078  0.479705  1
  O  O145  1  0.260614  0.108623  0.230568  1
  O  O146  1  0.314852  0.126029  0.282111  1
  O  O147  1  0.314829  0.126019  0.479649  1
  O  O148  1  0.417661  0.267532  0.380885  1
  O  O149  1  0.422077  0.221124  0.422585  1
  O  O150  1  0.422087  0.221119  0.339190  1
  O  O151  1  0.082847  0.078270  0.230560  1
  O  O152  1  0.421930  0.218385  0.531181  1
  O  O153  1  0.382189  0.164797  0.441220  1
  O  O154  1  0.382193  0.164797  0.320551  1
  O  O155  1  0.395922  0.165742  0.500813  1
  O  O156  1  0.395929  0.165767  0.260957  1
  O  O157  1  0.114764  0.137151  0.441374  1
  O  O158  1  0.114763  0.137148  0.320400  1
  O  O159  1  0.100547  0.134133  0.501054  1
  O  O160  1  0.100564  0.134119  0.260722  1
  O  O161  1  0.389876  0.331874  0.282749  1
  O  O162  1  -0.000000  0.032548  0.423134  1
  O  O163  1  0.082404  0.032514  0.380887  1
  O  O164  1  0.079469  0.078441  0.338566  1
  O  O165  1  0.079483  0.078439  0.423208  1
  O  O166  1  -0.000000  0.124634  0.337955  1
  O  O167  1  0.389882  0.331891  0.479011  1
  O  O168  1  0.418155  0.174847  0.380888  1
  O  O169  1  0.082125  0.124337  0.380887  1
  O  O170  1  -0.000000  0.124630  0.423828  1
  O  O171  1  -0.000000  0.123162  0.230581  1
  O  O172  1  0.499999  0.171202  0.230567  1
  O  O173  1  0.499997  0.174305  0.424223  1
  O  O174  1  0.101627  0.348087  0.500927  1
  O  O175  1  0.101632  0.348082  0.260833  1
  O  O176  1  0.115815  0.344763  0.441659  1
  O  O177  1  0.115789  0.344759  0.320103  1
  O  O178  1  0.199757  0.370377  0.479662  1
  O  O179  1  0.199748  0.370373  0.282110  1
  O  O180  1  0.113249  0.461437  0.441262  1
  O  O181  1  0.113210  0.461437  0.320495  1
  O  O182  1  0.098479  0.459543  0.500929  1
  O  O183  1  0.098496  0.459552  0.260821  1
  O  O184  1  0.182165  0.500627  0.480429  1
  O  O185  1  0.182174  0.500623  0.281354  1
  O  O186  1  0.191910  0.435882  0.479540  1
  O  O187  1  0.191895  0.435877  0.282235  1
  O  O188  1  0.499975  0.623162  0.230582  1
  O  O189  1  -0.000000  0.355452  0.423988  1
  O  O190  1  0.081941  0.355797  0.380882  1
  O  O191  1  0.078234  0.402074  0.422775  1
  O  O192  1  0.078211  0.402072  0.338984  1
  O  O193  1  0.295445  0.412199  0.487752  1
  O  O194  1  0.295435  0.412196  0.274029  1
  O  O195  1  0.218602  0.403918  0.230570  1
  O  O196  1  0.082464  0.448264  0.380879  1
  O  O197  1  0.417124  0.578279  0.230590  1
  O  O198  1  0.077596  0.402863  0.230567  1
  O  O199  1  0.225795  0.563283  0.488990  1
  O  O200  1  0.225815  0.563277  0.272807  1
  O  O201  1  0.238792  0.517703  0.230577  1
  O  O202  1  0.296851  0.513335  0.479251  1
  O  O203  1  0.296864  0.513325  0.282534  1
  O  O204  1  0.406709  0.398363  0.487674  1
  O  O205  1  0.406693  0.398349  0.274106  1
  O  O206  1  0.361985  0.435136  0.230577  1
  O  O207  1  0.371274  0.463864  0.477798  1
  O  O208  1  0.371279  0.463853  0.283996  1
  O  O209  1  0.499962  0.533281  0.230574  1
  O  O210  1  0.499975  0.532549  0.423139  1
  O  O211  1  0.389908  0.517320  0.441191  1
  O  O212  1  0.389905  0.517315  0.320604  1
  O  O213  1  0.401918  0.522151  0.500842  1
  O  O214  1  0.401941  0.522137  0.260955  1
  O  O215  1  0.299078  0.615080  0.479713  1
  O  O216  1  0.299089  0.615078  0.282086  1
  O  O217  1  0.239373  0.608626  0.230585  1
  O  O218  1  0.185128  0.626027  0.479675  1
  O  O219  1  0.185141  0.626020  0.282134  1
  O  O220  1  0.424344  0.355976  0.230567  1
  O  O221  1  0.499981  0.357283  0.275644  1
  O  O222  1  0.117777  0.664795  0.320564  1
  O  O223  1  0.117786  0.664791  0.441231  1
  O  O224  1  0.104047  0.665738  0.260968  1
  O  O225  1  0.104041  0.665761  0.500826  1
  O  O226  1  0.385222  0.637155  0.320415  1
  O  O227  1  0.385223  0.637153  0.441387  1
  O  O228  1  0.399425  0.634139  0.260735  1
  O  O229  1  0.399420  0.634130  0.501066  1
  O  O230  1  0.499969  0.532549  0.338653  1
  O  O231  1  0.417575  0.532519  0.380898  1
  O  O232  1  0.420513  0.578445  0.423219  1
  O  O233  1  0.420506  0.578445  0.338578  1
  O  O234  1  0.417865  0.624342  0.380901  1
  O  O235  1  0.499978  0.624632  0.337963  1
  O  O236  1  0.499982  0.624633  0.423836  1
  O  O237  1  0.499994  0.357288  0.486131  1
  O  O238  1  0.318101  0.805572  0.281211  1
  O  O239  1  0.318106  0.805570  0.480586  1
  O  O240  1  0.398348  0.848076  0.260854  1
  O  O241  1  0.398340  0.848073  0.500948  1
  O  O242  1  0.384174  0.844750  0.320124  1
  O  O243  1  0.384210  0.844744  0.441677  1
  O  O244  1  0.300220  0.870367  0.282126  1
  O  O245  1  0.300230  0.870364  0.479658  1
  O  O246  1  0.386679  0.961421  0.320519  1
  O  O247  1  0.386724  0.961422  0.441286  1
  O  O248  1  0.401474  0.959533  0.260851  1
  O  O249  1  0.401451  0.959540  0.500958  1
  O  O250  1  0.308034  0.935872  0.282227  1
  O  O251  1  0.308044  0.935868  0.479553  1
  O  O252  1  0.499973  0.855457  0.337792  1
  O  O253  1  0.418053  0.855786  0.380901  1
  O  O254  1  0.421725  0.902064  0.339007  1
  O  O255  1  0.421759  0.902063  0.422797  1
  O  O256  1  0.204513  0.912178  0.274026  1
  O  O257  1  0.204518  0.912172  0.487751  1
  O  O258  1  0.281352  0.903886  0.230574  1
  O  O259  1  0.204306  0.791228  0.281397  1
  O  O260  1  0.204310  0.791221  0.480408  1
  O  O261  1  0.277697  0.741311  0.273236  1
  O  O262  1  0.277710  0.741310  0.488567  1
  O  O263  1  0.264783  0.786275  0.230585  1
  O  O264  1  0.417471  0.948254  0.380903  1
  O  O265  1  0.093247  0.898358  0.274107  1
  O  O266  1  0.093251  0.898344  0.487680  1
  O  O267  1  0.137985  0.935127  0.230570  1
  O  O268  1  0.128704  0.963855  0.283985  1
  O  O269  1  0.128696  0.963842  0.477785  1
  O  O270  1  0.110074  0.831887  0.282773  1
  O  O271  1  0.110069  0.831871  0.479035  1
  O  O272  1  0.101322  0.772499  0.260986  1
  O  O273  1  0.101336  0.772486  0.500834  1
  O  O274  1  0.112176  0.780330  0.320242  1
  O  O275  1  0.112178  0.780311  0.441573  1
  O  O276  1  0.204911  0.689025  0.281961  1
  O  O277  1  0.204917  0.689029  0.479835  1
  O  O278  1  0.320188  0.678019  0.281132  1
  O  O279  1  0.320194  0.678016  0.480671  1
  O  O280  1  0.264295  0.696329  0.230583  1
  O  O281  1  0.075601  0.855969  0.230585  1
  O  O282  1  0.078036  0.718381  0.230601  1
  O  O283  1  0.422366  0.902854  0.230581  1
  O  O284  1  0.082319  0.767526  0.380906  1
  O  O285  1  0.077894  0.721125  0.339200  1
  O  O286  1  0.077889  0.721113  0.422599  1
  O  O287  1  0.499979  0.855591  0.230574  1
  O  O288  1  0.081815  0.674838  0.380896  1
  O  O289  1  0.499945  0.948537  0.338297  1
  O  O290  1  0.499984  0.948535  0.423487  1
  O  O291  1  0.499974  0.949643  0.230571  1
  O  O292  1  0.818131  0.305566  0.281201  1
  O  O293  1  0.818136  0.305566  0.480583  1
  O  O294  1  0.682193  -0.000000  0.480427  1
  O  O295  1  0.682189  0.000000  0.281354  1
  O  O296  1  0.704336  0.291224  0.281385  1
  O  O297  1  0.704345  0.291218  0.480392  1
  O  O298  1  0.777729  0.241305  0.273228  1
  O  O299  1  0.777742  0.241303  0.488559  1
  O  O300  1  0.764807  0.286267  0.230574  1
  O  O301  1  0.725828  0.063274  0.488985  1
  O  O302  1  0.725824  0.063274  0.272798  1
  O  O303  1  0.738817  0.017694  0.230575  1
  O  O304  1  0.796887  0.013331  0.479250  1
  O  O305  1  0.796883  0.013333  0.282535  1
  O  O306  1  0.601356  0.272492  0.260969  1
  O  O307  1  0.601372  0.272490  0.500817  1
  O  O308  1  0.612213  0.280319  0.320228  1
  O  O309  1  0.612205  0.280321  0.441558  1
  O  O310  1  0.704941  0.189021  0.281956  1
  O  O311  1  0.704952  0.189021  0.479829  1
  O  O312  1  0.820216  0.178012  0.281127  1
  O  O313  1  0.820228  0.178009  0.480667  1
  O  O314  1  0.764327  0.196323  0.230578  1
  O  O315  1  0.889951  0.017312  0.441192  1
  O  O316  1  0.889930  0.017315  0.320604  1
  O  O317  1  0.901957  0.022142  0.500842  1
  O  O318  1  0.901968  0.022130  0.260954  1
  O  O319  1  0.799115  0.115071  0.479709  1
  O  O320  1  0.799108  0.115072  0.282081  1
  O  O321  1  0.739399  0.108621  0.230576  1
  O  O322  1  0.685169  0.126019  0.479661  1
  O  O323  1  0.685157  0.126019  0.282121  1
  O  O324  1  0.582351  0.267526  0.380892  1
  O  O325  1  0.577929  0.221117  0.339195  1
  O  O326  1  0.577922  0.221119  0.422592  1
  O  O327  1  0.617816  0.164788  0.320562  1
  O  O328  1  0.617810  0.164793  0.441228  1
  O  O329  1  0.604068  0.165746  0.260968  1
  O  O330  1  0.604086  0.165746  0.500826  1
  O  O331  1  0.885242  0.137148  0.320412  1
  O  O332  1  0.885258  0.137147  0.441384  1
  O  O333  1  0.899450  0.134131  0.260733  1
  O  O334  1  0.899453  0.134123  0.501063  1
  O  O335  1  0.917609  0.032514  0.380897  1
  O  O336  1  0.920546  0.078439  0.423217  1
  O  O337  1  0.920536  0.078442  0.338576  1
  O  O338  1  0.581849  0.174841  0.380895  1
  O  O339  1  0.917894  0.124337  0.380896  1
  O  O340  1  0.917156  0.078273  0.230589  1
  O  O341  1  0.578073  0.218380  0.230577  1
  O  O342  1  0.500009  0.267786  0.338380  1
  O  O343  1  0.610110  0.331878  0.479024  1
  O  O344  1  -0.000000  0.032549  0.338649  1
  O  O345  1  0.610096  0.331878  0.282763  1
  O  O346  1  -0.000000  0.033282  0.230577  1
  O  O347  1  0.500006  0.174301  0.337558  1
  O  O348  1  0.500002  0.267791  0.423397  1
  O  O349  1  0.500003  0.265707  0.230568  1
  O  O350  1  0.898367  0.348077  0.260849  1
  O  O351  1  0.898359  0.348079  0.500943  1
  O  O352  1  0.884196  0.344743  0.320119  1
  O  O353  1  0.884219  0.344744  0.441673  1
  O  O354  1  0.800237  0.370359  0.282124  1
  O  O355  1  0.800240  0.370361  0.479658  1
  O  O356  1  0.886693  0.461418  0.320515  1
  O  O357  1  0.886726  0.461423  0.441281  1
  O  O358  1  0.901466  0.459542  0.260844  1
  O  O359  1  0.901461  0.459544  0.500952  1
  O  O360  1  0.817759  0.500610  0.281361  1
  O  O361  1  0.817769  0.500612  0.480429  1
  O  O362  1  0.808051  0.435864  0.282231  1
  O  O363  1  0.808062  0.435865  0.479552  1
  O  O364  1  0.918066  0.355782  0.380896  1
  O  O365  1  0.921739  0.402058  0.339002  1
  O  O366  1  0.921765  0.402061  0.422793  1
  O  O367  1  0.704530  0.412174  0.274031  1
  O  O368  1  0.704537  0.412180  0.487753  1
  O  O369  1  0.781366  0.403884  0.230575  1
  O  O370  1  0.917479  0.448249  0.380897  1
  O  O371  1  0.774153  0.563270  0.272804  1
  O  O372  1  0.774162  0.563272  0.488991  1
  O  O373  1  0.761158  0.517693  0.230578  1
  O  O374  1  0.703072  0.513334  0.282532  1
  O  O375  1  0.703083  0.513336  0.479256  1
  O  O376  1  0.593267  0.398349  0.274105  1
  O  O377  1  0.593279  0.398350  0.487680  1
  O  O378  1  0.638005  0.435129  0.230577  1
  O  O379  1  0.628700  0.463845  0.283997  1
  O  O380  1  0.628704  0.463849  0.477794  1
  O  O381  1  -0.000000  0.355450  0.337789  1
  O  O382  1  -0.000000  0.448532  0.423484  1
  O  O383  1  0.610028  0.517306  0.320600  1
  O  O384  1  0.610037  0.517308  0.441190  1
  O  O385  1  0.597985  0.522119  0.260950  1
  O  O386  1  0.597999  0.522126  0.500839  1
  O  O387  1  0.700869  0.615068  0.282082  1
  O  O388  1  0.700874  0.615068  0.479715  1
  O  O389  1  0.760590  0.608619  0.230583  1
  O  O390  1  0.814809  0.626019  0.282133  1
  O  O391  1  0.814815  0.626020  0.479668  1
  O  O392  1  0.575630  0.355966  0.230574  1
  O  O393  1  -0.000000  0.355592  0.230571  1
  O  O394  1  0.882156  0.664791  0.441229  1
  O  O395  1  0.882159  0.664798  0.320565  1
  O  O396  1  0.895893  0.665756  0.500826  1
  O  O397  1  0.895889  0.665747  0.260969  1
  O  O398  1  0.614741  0.637142  0.441384  1
  O  O399  1  0.614734  0.637144  0.320410  1
  O  O400  1  0.600528  0.634116  0.501063  1
  O  O401  1  0.600527  0.634118  0.260732  1
  O  O402  1  -0.000000  0.448529  0.338293  1
  O  O403  1  0.582369  0.532509  0.380895  1
  O  O404  1  0.579441  0.578436  0.338576  1
  O  O405  1  0.579445  0.578437  0.423216  1
  O  O406  1  0.582096  0.624333  0.380897  1
  O  O407  1  0.922374  0.402859  0.230580  1
  O  O408  1  -0.000000  0.449643  0.230573  1
  O  O409  1  0.582814  0.578263  0.230582  1
  O  O410  1  0.681841  0.805577  0.480585  1
  O  O411  1  0.681837  0.805574  0.281202  1
  O  O412  1  0.601607  0.848092  0.500927  1
  O  O413  1  0.601614  0.848083  0.260833  1
  O  O414  1  0.615806  0.844766  0.441660  1
  O  O415  1  0.615765  0.844764  0.320105  1
  O  O416  1  0.699749  0.870373  0.479669  1
  O  O417  1  0.699730  0.870372  0.282112  1
  O  O418  1  0.613248  0.961442  0.441264  1
  O  O419  1  0.613198  0.961446  0.320496  1
  O  O420  1  0.598482  0.959550  0.500932  1
  O  O421  1  0.598491  0.959559  0.260822  1
  O  O422  1  0.691897  0.935876  0.479540  1
  O  O423  1  0.691875  0.935875  0.282241  1
  O  O424  1  0.500006  0.855455  0.423992  1
  O  O425  1  0.581927  0.855803  0.380883  1
  O  O426  1  0.578231  0.902078  0.422777  1
  O  O427  1  0.578195  0.902080  0.338985  1
  O  O428  1  0.795432  0.912202  0.487756  1
  O  O429  1  0.795415  0.912199  0.274036  1
  O  O430  1  0.718589  0.903920  0.230574  1
  O  O431  1  0.795624  0.791213  0.480400  1
  O  O432  1  0.795623  0.791215  0.281399  1
  O  O433  1  0.722218  0.741307  0.488563  1
  O  O434  1  0.722221  0.741306  0.273230  1
  O  O435  1  0.735162  0.786270  0.230580  1
  O  O436  1  0.582458  0.948270  0.380881  1
  O  O437  1  0.921891  0.718382  0.230589  1
  O  O438  1  -0.000000  0.765710  0.230589  1
  O  O439  1  0.906684  0.898352  0.487687  1
  O  O440  1  0.906672  0.898351  0.274118  1
  O  O441  1  0.861968  0.935135  0.230584  1
  O  O442  1  0.871292  0.963857  0.477803  1
  O  O443  1  0.871271  0.963854  0.284001  1
  O  O444  1  0.889845  0.831878  0.479035  1
  O  O445  1  0.889846  0.831880  0.282772  1
  O  O446  1  0.898601  0.772493  0.500832  1
  O  O447  1  0.898608  0.772493  0.260984  1
  O  O448  1  0.887770  0.780316  0.441571  1
  O  O449  1  0.887762  0.780327  0.320242  1
  O  O450  1  0.795019  0.689025  0.479830  1
  O  O451  1  0.795019  0.689024  0.281961  1
  O  O452  1  0.679748  0.678008  0.480671  1
  O  O453  1  0.679748  0.678008  0.281123  1
  O  O454  1  0.735647  0.696326  0.230579  1
  O  O455  1  0.924315  0.855971  0.230586  1
  O  O456  1  0.917627  0.767528  0.380906  1
  O  O457  1  0.922054  0.721115  0.422599  1
  O  O458  1  0.922049  0.721126  0.339199  1
  O  O459  1  -0.000000  0.674296  0.424230  1
  O  O460  1  0.918126  0.674841  0.380896  1
  O  O461  1  0.577587  0.902867  0.230570  1
  O  O462  1  -0.000000  0.857288  0.275659  1
  O  O463  1  -0.000000  0.857279  0.486146  1
  O  O464  1  -0.000000  0.671202  0.230583  1
  O  O465  1  -0.000000  0.767795  0.338398  1
  O  O466  1  0.000000  0.767785  0.423414  1
  O  O467  1  0.000000  0.674310  0.337563  1
  O  O468  1  0.181869  0.305577  0.581827  1
  O  O469  1  0.317787  -0.000000  0.581986  1
  O  O470  1  0.295659  0.291212  0.582018  1
  O  O471  1  0.222248  0.241311  0.573849  1
  O  O472  1  0.235196  0.286276  0.531201  1
  O  O473  1  0.274183  0.063280  0.573430  1
  O  O474  1  0.261172  0.017703  0.531207  1
  O  O475  1  0.203106  0.013337  0.583164  1
  O  O476  1  0.398636  0.272487  0.561589  1
  O  O477  1  0.387806  0.280316  0.620850  1
  O  O478  1  0.295051  0.189031  0.582583  1
  O  O479  1  0.179778  0.178014  0.581746  1
  O  O480  1  0.235679  0.196331  0.531201  1
  O  O481  1  0.110056  0.017312  0.621225  1
  O  O482  1  0.098034  0.022138  0.561575  1
  O  O483  1  0.200908  0.115077  0.582707  1
  O  O484  1  0.260614  0.108623  0.531202  1
  O  O485  1  0.314852  0.126029  0.582744  1
  O  O486  1  0.082847  0.078270  0.531194  1
  O  O487  1  0.382193  0.164797  0.621185  1
  O  O488  1  0.395929  0.165767  0.561591  1
  O  O489  1  0.114763  0.137148  0.621034  1
  O  O490  1  0.100564  0.134119  0.561356  1
  O  O491  1  0.389876  0.331874  0.583383  1
  O  O492  1  -0.000000  0.123162  0.531215  1
  O  O493  1  0.499999  0.171202  0.531200  1
  O  O494  1  0.101632  0.348082  0.561466  1
  O  O495  1  0.115789  0.344759  0.620737  1
  O  O496  1  0.199748  0.370373  0.582743  1
  O  O497  1  0.113210  0.461437  0.621129  1
  O  O498  1  0.098496  0.459552  0.561455  1
  O  O499  1  0.182174  0.500623  0.581987  1
  O  O500  1  0.191895  0.435877  0.582868  1
  O  O501  1  0.499975  0.623162  0.531215  1
  O  O502  1  0.295435  0.412196  0.574662  1
  O  O503  1  0.218602  0.403918  0.531204  1
  O  O504  1  0.417124  0.578279  0.531224  1
  O  O505  1  0.077596  0.402863  0.531200  1
  O  O506  1  0.225815  0.563277  0.573441  1
  O  O507  1  0.238792  0.517703  0.531210  1
  O  O508  1  0.296864  0.513325  0.583168  1
  O  O509  1  0.406693  0.398349  0.574740  1
  O  O510  1  0.361985  0.435136  0.531211  1
  O  O511  1  0.371279  0.463853  0.584629  1
  O  O512  1  0.499962  0.533281  0.531207  1
  O  O513  1  0.389905  0.517315  0.621238  1
  O  O514  1  0.401941  0.522137  0.561588  1
  O  O515  1  0.299089  0.615078  0.582720  1
  O  O516  1  0.239373  0.608626  0.531218  1
  O  O517  1  0.185141  0.626020  0.582767  1
  O  O518  1  0.424344  0.355976  0.531201  1
  O  O519  1  0.499981  0.357283  0.576278  1
  O  O520  1  0.117777  0.664795  0.621198  1
  O  O521  1  0.104047  0.665738  0.561601  1
  O  O522  1  0.385222  0.637155  0.621048  1
  O  O523  1  0.399425  0.634139  0.561369  1
  O  O524  1  0.318101  0.805572  0.581845  1
  O  O525  1  0.398348  0.848076  0.561487  1
  O  O526  1  0.384174  0.844750  0.620757  1
  O  O527  1  0.300220  0.870367  0.582759  1
  O  O528  1  0.386679  0.961421  0.621153  1
  O  O529  1  0.401474  0.959533  0.561484  1
  O  O530  1  0.308034  0.935872  0.582861  1
  O  O531  1  0.204513  0.912178  0.574660  1
  O  O532  1  0.281352  0.903886  0.531207  1
  O  O533  1  0.204306  0.791228  0.582031  1
  O  O534  1  0.277697  0.741311  0.573869  1
  O  O535  1  0.264783  0.786275  0.531218  1
  O  O536  1  0.093247  0.898358  0.574741  1
  O  O537  1  0.137985  0.935127  0.531204  1
  O  O538  1  0.128704  0.963855  0.584619  1
  O  O539  1  0.110074  0.831887  0.583407  1
  O  O540  1  0.101322  0.772499  0.561619  1
  O  O541  1  0.112176  0.780330  0.620876  1
  O  O542  1  0.204911  0.689025  0.582595  1
  O  O543  1  0.320188  0.678019  0.581766  1
  O  O544  1  0.264295  0.696329  0.531217  1
  O  O545  1  0.075601  0.855969  0.531218  1
  O  O546  1  0.078036  0.718381  0.531235  1
  O  O547  1  0.422366  0.902854  0.531215  1
  O  O548  1  0.499979  0.855591  0.531207  1
  O  O549  1  0.499974  0.949643  0.531204  1
  O  O550  1  0.818131  0.305566  0.581834  1
  O  O551  1  0.682189  -0.000000  0.581987  1
  O  O552  1  0.704336  0.291224  0.582019  1
  O  O553  1  0.777729  0.241305  0.573862  1
  O  O554  1  0.764807  0.286267  0.531208  1
  O  O555  1  0.725824  0.063274  0.573432  1
  O  O556  1  0.738817  0.017694  0.531208  1
  O  O557  1  0.796883  0.013333  0.583169  1
  O  O558  1  0.601356  0.272492  0.561603  1
  O  O559  1  0.612213  0.280319  0.620861  1
  O  O560  1  0.704941  0.189021  0.582590  1
  O  O561  1  0.820216  0.178012  0.581761  1
  O  O562  1  0.764327  0.196323  0.531211  1
  O  O563  1  0.889930  0.017315  0.621237  1
  O  O564  1  0.901968  0.022130  0.561588  1
  O  O565  1  0.799108  0.115072  0.582714  1
  O  O566  1  0.739399  0.108621  0.531209  1
  O  O567  1  0.685157  0.126019  0.582754  1
  O  O568  1  0.617816  0.164788  0.621196  1
  O  O569  1  0.604068  0.165746  0.561602  1
  O  O570  1  0.885242  0.137148  0.621045  1
  O  O571  1  0.899450  0.134131  0.561367  1
  O  O572  1  0.917156  0.078273  0.531223  1
  O  O573  1  0.578073  0.218380  0.531210  1
  O  O574  1  0.610096  0.331878  0.583396  1
  O  O575  1  -0.000000  0.033282  0.531211  1
  O  O576  1  0.500003  0.265707  0.531202  1
  O  O577  1  0.898367  0.348077  0.561483  1
  O  O578  1  0.884196  0.344743  0.620752  1
  O  O579  1  0.800237  0.370359  0.582757  1
  O  O580  1  0.886693  0.461418  0.621148  1
  O  O581  1  0.901466  0.459542  0.561478  1
  O  O582  1  0.817759  0.500610  0.581995  1
  O  O583  1  0.808051  0.435864  0.582865  1
  O  O584  1  0.704530  0.412174  0.574665  1
  O  O585  1  0.781366  0.403884  0.531208  1
  O  O586  1  0.774153  0.563270  0.573438  1
  O  O587  1  0.761158  0.517693  0.531212  1
  O  O588  1  0.703072  0.513334  0.583165  1
  O  O589  1  0.593267  0.398349  0.574738  1
  O  O590  1  0.638005  0.435129  0.531211  1
  O  O591  1  0.628700  0.463845  0.584630  1
  O  O592  1  0.610028  0.517306  0.621234  1
  O  O593  1  0.597985  0.522119  0.561584  1
  O  O594  1  0.700869  0.615068  0.582715  1
  O  O595  1  0.760590  0.608619  0.531216  1
  O  O596  1  0.814809  0.626019  0.582767  1
  O  O597  1  0.575630  0.355966  0.531208  1
  O  O598  1  -0.000000  0.355592  0.531204  1
  O  O599  1  0.882159  0.664798  0.621198  1
  O  O600  1  0.895889  0.665747  0.561602  1
  O  O601  1  0.614734  0.637144  0.621044  1
  O  O602  1  0.600527  0.634118  0.561365  1
  O  O603  1  0.922374  0.402859  0.531214  1
  O  O604  1  -0.000000  0.449643  0.531207  1
  O  O605  1  0.582814  0.578263  0.531216  1
  O  O606  1  0.681837  0.805574  0.581836  1
  O  O607  1  0.601614  0.848083  0.561467  1
  O  O608  1  0.615765  0.844764  0.620739  1
  O  O609  1  0.699730  0.870372  0.582746  1
  O  O610  1  0.613198  0.961446  0.621130  1
  O  O611  1  0.598491  0.959559  0.561456  1
  O  O612  1  0.691875  0.935875  0.582874  1
  O  O613  1  0.795415  0.912199  0.574670  1
  O  O614  1  0.718589  0.903920  0.531208  1
  O  O615  1  0.795623  0.791215  0.582033  1
  O  O616  1  0.722221  0.741306  0.573863  1
  O  O617  1  0.735162  0.786270  0.531214  1
  O  O618  1  0.921891  0.718382  0.531222  1
  O  O619  1  -0.000000  0.765710  0.531222  1
  O  O620  1  0.906672  0.898351  0.574751  1
  O  O621  1  0.861968  0.935135  0.531217  1
  O  O622  1  0.871271  0.963854  0.584634  1
  O  O623  1  0.889846  0.831880  0.583405  1
  O  O624  1  0.898608  0.772493  0.561618  1
  O  O625  1  0.887762  0.780327  0.620876  1
  O  O626  1  0.795019  0.689024  0.582595  1
  O  O627  1  0.679748  0.678008  0.581757  1
  O  O628  1  0.735647  0.696326  0.531213  1
  O  O629  1  0.924315  0.855971  0.531220  1
  O  O630  1  0.577587  0.902867  0.531203  1
  O  O631  1  -0.000000  0.857288  0.576292  1
  O  O632  1  0.000000  0.671202  0.531216  1
  Si  Si633  1  0.232017  0.280734  0.193699  1
  Si  Si634  1  0.265533  0.023907  0.193672  1
  Si  Si635  1  0.365995  0.294345  0.174069  1
  Si  Si636  1  0.232186  0.201845  0.193569  1
  Si  Si637  1  0.134649  0.003745  0.173331  1
  Si  Si638  1  0.263462  0.102521  0.193548  1
  Si  Si639  1  0.346916  0.161522  0.173310  1
  Si  Si640  1  0.148479  0.142197  0.173755  1
  Si  Si641  1  0.150590  0.341291  0.173882  1
  Si  Si642  1  0.146787  0.466291  0.173541  1
  Si  Si643  1  0.226231  0.404534  0.193363  1
  Si  Si644  1  0.234417  0.523914  0.193676  1
  Si  Si645  1  0.360167  0.428252  0.193670  1
  Si  Si646  1  0.365308  0.503766  0.173340  1
  Si  Si647  1  0.236504  0.602528  0.193564  1
  Si  Si648  1  0.430209  0.360853  0.193456  1
  Si  Si649  1  0.153048  0.661529  0.173327  1
  Si  Si650  1  0.351494  0.642195  0.173766  1
  Si  Si651  1  0.349403  0.841277  0.173891  1
  Si  Si652  1  0.353165  0.966278  0.173558  1
  Si  Si653  1  0.273733  0.904511  0.193366  1
  Si  Si654  1  0.267958  0.780730  0.193716  1
  Si  Si655  1  0.139799  0.928233  0.193665  1
  Si  Si656  1  0.133971  0.794328  0.174095  1
  Si  Si657  1  0.267788  0.701842  0.193585  1
  Si  Si658  1  0.069744  0.860838  0.193473  1
  Si  Si659  1  0.767988  0.280723  0.193706  1
  Si  Si660  1  0.734450  0.023906  0.193674  1
  Si  Si661  1  0.634007  0.294335  0.174079  1
  Si  Si662  1  0.767822  0.201835  0.193579  1
  Si  Si663  1  0.865343  0.003759  0.173340  1
  Si  Si664  1  0.736539  0.102520  0.193556  1
  Si  Si665  1  0.653083  0.161521  0.173321  1
  Si  Si666  1  0.851529  0.142188  0.173762  1
  Si  Si667  1  0.849419  0.341278  0.173889  1
  Si  Si668  1  0.853170  0.466280  0.173554  1
  Si  Si669  1  0.773749  0.404510  0.193367  1
  Si  Si670  1  0.765526  0.523904  0.193678  1
  Si  Si671  1  0.639820  0.428240  0.193671  1
  Si  Si672  1  0.634636  0.503753  0.173339  1
  Si  Si673  1  0.763451  0.602518  0.193562  1
  Si  Si674  1  0.569778  0.360842  0.193463  1
  Si  Si675  1  0.846890  0.661526  0.173324  1
  Si  Si676  1  0.648459  0.642183  0.173765  1
  Si  Si677  1  0.650573  0.841291  0.173885  1
  Si  Si678  1  0.646790  0.966293  0.173542  1
  Si  Si679  1  0.726220  0.904531  0.193367  1
  Si  Si680  1  0.731976  0.780727  0.193712  1
  Si  Si681  1  0.860157  0.928249  0.193677  1
  Si  Si682  1  0.865962  0.794331  0.174091  1
  Si  Si683  1  0.732148  0.701839  0.193581  1
  Si  Si684  1  0.930175  0.860842  0.193474  1
  Si  Si685  1  0.232017  0.280734  0.494332  1
  Si  Si686  1  0.232011  0.280731  0.267436  1
  Si  Si687  1  0.265544  0.023912  0.267474  1
  Si  Si688  1  0.265533  0.023907  0.494306  1
  Si  Si689  1  0.365995  0.294345  0.474702  1
  Si  Si690  1  0.365997  0.294327  0.287061  1
  Si  Si691  1  0.232186  0.201845  0.494202  1
  Si  Si692  1  0.232179  0.201843  0.267566  1
  Si  Si693  1  0.134655  0.003757  0.287809  1
  Si  Si694  1  0.134649  0.003745  0.473965  1
  Si  Si695  1  0.263481  0.102526  0.267589  1
  Si  Si696  1  0.263462  0.102521  0.494181  1
  Si  Si697  1  0.429752  0.260563  0.417434  1
  Si  Si698  1  0.429758  0.260559  0.344337  1
  Si  Si699  1  0.346916  0.161522  0.473944  1
  Si  Si700  1  0.346925  0.161534  0.287823  1
  Si  Si701  1  0.148479  0.142197  0.474389  1
  Si  Si702  1  0.148489  0.142190  0.287387  1
  Si  Si703  1  0.070274  0.039050  0.344303  1
  Si  Si704  1  0.070286  0.039048  0.417472  1
  Si  Si705  1  0.429655  0.181601  0.417557  1
  Si  Si706  1  0.429661  0.181597  0.344218  1
  Si  Si707  1  0.070426  0.117887  0.417593  1
  Si  Si708  1  0.070419  0.117888  0.344181  1
  Si  Si709  1  0.429706  0.257818  0.230561  1
  Si  Si710  1  0.070463  0.038852  0.230568  1
  Si  Si711  1  0.429499  0.178809  0.230562  1
  Si  Si712  1  0.070667  0.117819  0.230570  1
  Si  Si713  1  0.150590  0.341291  0.474515  1
  Si  Si714  1  0.150579  0.341287  0.287251  1
  Si  Si715  1  0.146787  0.466291  0.474175  1
  Si  Si716  1  0.146776  0.466290  0.287591  1
  Si  Si717  1  0.070351  0.362555  0.417556  1
  Si  Si718  1  0.070333  0.362552  0.344208  1
  Si  Si719  1  0.226231  0.404534  0.493996  1
  Si  Si720  1  0.226223  0.404531  0.267778  1
  Si  Si721  1  0.070260  0.441584  0.417411  1
  Si  Si722  1  0.070236  0.441582  0.344350  1
  Si  Si723  1  0.234417  0.523914  0.494309  1
  Si  Si724  1  0.234431  0.523909  0.267478  1
  Si  Si725  1  0.360167  0.428252  0.494304  1
  Si  Si726  1  0.360162  0.428245  0.267483  1
  Si  Si727  1  0.365308  0.503766  0.473973  1
  Si  Si728  1  0.365317  0.503755  0.287821  1
  Si  Si729  1  0.236504  0.602528  0.494198  1
  Si  Si730  1  0.236516  0.602524  0.267605  1
  Si  Si731  1  0.430209  0.360853  0.494090  1
  Si  Si732  1  0.430198  0.360843  0.267680  1
  Si  Si733  1  0.153048  0.661521  0.287838  1
  Si  Si734  1  0.153048  0.661529  0.473961  1
  Si  Si735  1  0.351496  0.642199  0.287403  1
  Si  Si736  1  0.351494  0.642195  0.474399  1
  Si  Si737  1  0.429701  0.539054  0.417482  1
  Si  Si738  1  0.429696  0.539053  0.344313  1
  Si  Si739  1  0.429564  0.617891  0.344194  1
  Si  Si740  1  0.429567  0.617893  0.417606  1
  Si  Si741  1  0.070170  0.362976  0.230565  1
  Si  Si742  1  0.069704  0.442817  0.230563  1
  Si  Si743  1  0.429497  0.538861  0.230582  1
  Si  Si744  1  0.429310  0.617827  0.230585  1
  Si  Si745  1  0.349391  0.841282  0.287269  1
  Si  Si746  1  0.349403  0.841277  0.474525  1
  Si  Si747  1  0.353158  0.966278  0.287602  1
  Si  Si748  1  0.353165  0.966278  0.474192  1
  Si  Si749  1  0.429632  0.862546  0.344226  1
  Si  Si750  1  0.429661  0.862545  0.417574  1
  Si  Si751  1  0.273728  0.904514  0.267781  1
  Si  Si752  1  0.273733  0.904511  0.493999  1
  Si  Si753  1  0.267950  0.780731  0.267453  1
  Si  Si754  1  0.267958  0.780730  0.494350  1
  Si  Si755  1  0.429675  0.941575  0.344371  1
  Si  Si756  1  0.429708  0.941574  0.417432  1
  Si  Si757  1  0.139799  0.928242  0.267477  1
  Si  Si758  1  0.139799  0.928233  0.494299  1
  Si  Si759  1  0.133971  0.794343  0.287085  1
  Si  Si760  1  0.133971  0.794328  0.474729  1
  Si  Si761  1  0.267782  0.701842  0.267582  1
  Si  Si762  1  0.267788  0.701842  0.494218  1
  Si  Si763  1  0.069744  0.860848  0.267695  1
  Si  Si764  1  0.069744  0.860838  0.494106  1
  Si  Si765  1  0.070222  0.760564  0.344357  1
  Si  Si766  1  0.070222  0.760553  0.417454  1
  Si  Si767  1  0.070314  0.681601  0.344228  1
  Si  Si768  1  0.070316  0.681591  0.417566  1
  Si  Si769  1  0.429800  0.862968  0.230582  1
  Si  Si770  1  0.430250  0.942809  0.230583  1
  Si  Si771  1  0.070263  0.757815  0.230594  1
  Si  Si772  1  0.070467  0.678805  0.230585  1
  Si  Si773  1  0.767980  0.280725  0.267443  1
  Si  Si774  1  0.767988  0.280723  0.494339  1
  Si  Si775  1  0.734450  0.023906  0.494307  1
  Si  Si776  1  0.734447  0.023906  0.267475  1
  Si  Si777  1  0.634000  0.294336  0.287071  1
  Si  Si778  1  0.634007  0.294335  0.474713  1
  Si  Si779  1  0.767813  0.201837  0.267576  1
  Si  Si780  1  0.767822  0.201835  0.494212  1
  Si  Si781  1  0.865343  0.003759  0.473973  1
  Si  Si782  1  0.865333  0.003757  0.287822  1
  Si  Si783  1  0.736539  0.102520  0.494189  1
  Si  Si784  1  0.736535  0.102520  0.267596  1
  Si  Si785  1  0.570258  0.260556  0.344344  1
  Si  Si786  1  0.570252  0.260558  0.417440  1
  Si  Si787  1  0.653075  0.161519  0.287832  1
  Si  Si788  1  0.653083  0.161521  0.473954  1
  Si  Si789  1  0.851518  0.142191  0.287399  1
  Si  Si790  1  0.851529  0.142188  0.474396  1
  Si  Si791  1  0.929737  0.039048  0.417481  1
  Si  Si792  1  0.929726  0.039050  0.344312  1
  Si  Si793  1  0.570349  0.181594  0.344226  1
  Si  Si794  1  0.570344  0.181596  0.417564  1
  Si  Si795  1  0.929591  0.117889  0.344190  1
  Si  Si796  1  0.929598  0.117887  0.417602  1
  Si  Si797  1  0.570300  0.257814  0.230574  1
  Si  Si798  1  0.929530  0.038855  0.230583  1
  Si  Si799  1  0.570500  0.178804  0.230576  1
  Si  Si800  1  0.929341  0.117821  0.230584  1
  Si  Si801  1  0.849413  0.341276  0.287264  1
  Si  Si802  1  0.849419  0.341278  0.474523  1
  Si  Si803  1  0.853158  0.466278  0.287602  1
  Si  Si804  1  0.853170  0.466280  0.474188  1
  Si  Si805  1  0.929651  0.362541  0.344222  1
  Si  Si806  1  0.929670  0.362543  0.417569  1
  Si  Si807  1  0.773743  0.404508  0.267782  1
  Si  Si808  1  0.773749  0.404510  0.494000  1
  Si  Si809  1  0.929686  0.441570  0.344365  1
  Si  Si810  1  0.929710  0.441572  0.417427  1
  Si  Si811  1  0.765516  0.523903  0.267480  1
  Si  Si812  1  0.765526  0.523904  0.494311  1
  Si  Si813  1  0.639814  0.428238  0.267483  1
  Si  Si814  1  0.639820  0.428240  0.494305  1
  Si  Si815  1  0.634626  0.503750  0.287818  1
  Si  Si816  1  0.634636  0.503753  0.473972  1
  Si  Si817  1  0.763446  0.602516  0.267603  1
  Si  Si818  1  0.763451  0.602518  0.494195  1
  Si  Si819  1  0.569767  0.360841  0.267686  1
  Si  Si820  1  0.569778  0.360842  0.494097  1
  Si  Si821  1  0.846890  0.661526  0.473957  1
  Si  Si822  1  0.846888  0.661524  0.287838  1
  Si  Si823  1  0.648459  0.642183  0.474399  1
  Si  Si824  1  0.648456  0.642185  0.287396  1
  Si  Si825  1  0.570245  0.539045  0.344311  1
  Si  Si826  1  0.570250  0.539045  0.417480  1
  Si  Si827  1  0.570395  0.617884  0.417603  1
  Si  Si828  1  0.570392  0.617884  0.344191  1
  Si  Si829  1  0.929817  0.362972  0.230578  1
  Si  Si830  1  0.930251  0.442814  0.230580  1
  Si  Si831  1  0.570430  0.538845  0.230578  1
  Si  Si832  1  0.570636  0.617812  0.230581  1
  Si  Si833  1  0.650573  0.841291  0.474519  1
  Si  Si834  1  0.650556  0.841288  0.287255  1
  Si  Si835  1  0.646790  0.966293  0.474176  1
  Si  Si836  1  0.646771  0.966295  0.287593  1
  Si  Si837  1  0.570343  0.862559  0.417558  1
  Si  Si838  1  0.570314  0.862561  0.344210  1
  Si  Si839  1  0.726220  0.904531  0.494001  1
  Si  Si840  1  0.726205  0.904530  0.267783  1
  Si  Si841  1  0.731976  0.780727  0.494345  1
  Si  Si842  1  0.731980  0.780726  0.267449  1
  Si  Si843  1  0.570259  0.941589  0.417413  1
  Si  Si844  1  0.570225  0.941590  0.344352  1
  Si  Si845  1  0.860157  0.928249  0.494311  1
  Si  Si846  1  0.860143  0.928246  0.267490  1
  Si  Si847  1  0.865962  0.794331  0.474725  1
  Si  Si848  1  0.865958  0.794335  0.287084  1
  Si  Si849  1  0.732148  0.701839  0.494214  1
  Si  Si850  1  0.732149  0.701838  0.267578  1
  Si  Si851  1  0.930175  0.860842  0.494108  1
  Si  Si852  1  0.930174  0.860844  0.267698  1
  Si  Si853  1  0.929723  0.760555  0.417454  1
  Si  Si854  1  0.929721  0.760565  0.344357  1
  Si  Si855  1  0.929628  0.681592  0.417566  1
  Si  Si856  1  0.929625  0.681603  0.344228  1
  Si  Si857  1  0.570154  0.862980  0.230567  1
  Si  Si858  1  0.569703  0.942822  0.230564  1
  Si  Si859  1  0.929669  0.757816  0.230590  1
  Si  Si860  1  0.929465  0.678807  0.230582  1
  Si  Si861  1  0.232011  0.280731  0.568069  1
  Si  Si862  1  0.265544  0.023912  0.568108  1
  Si  Si863  1  0.365997  0.294327  0.587695  1
  Si  Si864  1  0.232179  0.201843  0.568199  1
  Si  Si865  1  0.134655  0.003757  0.588443  1
  Si  Si866  1  0.263481  0.102526  0.568223  1
  Si  Si867  1  0.346925  0.161534  0.588456  1
  Si  Si868  1  0.148489  0.142190  0.588021  1
  Si  Si869  1  0.429706  0.257818  0.531194  1
  Si  Si870  1  0.070463  0.038852  0.531201  1
  Si  Si871  1  0.429499  0.178809  0.531196  1
  Si  Si872  1  0.070667  0.117819  0.531204  1
  Si  Si873  1  0.150579  0.341287  0.587885  1
  Si  Si874  1  0.146776  0.466290  0.588224  1
  Si  Si875  1  0.226223  0.404531  0.568411  1
  Si  Si876  1  0.234431  0.523909  0.568112  1
  Si  Si877  1  0.360162  0.428245  0.568116  1
  Si  Si878  1  0.365317  0.503755  0.588455  1
  Si  Si879  1  0.236516  0.602524  0.568239  1
  Si  Si880  1  0.430198  0.360843  0.568313  1
  Si  Si881  1  0.153048  0.661521  0.588472  1
  Si  Si882  1  0.351496  0.642199  0.588036  1
  Si  Si883  1  0.070170  0.362976  0.531198  1
  Si  Si884  1  0.069704  0.442817  0.531197  1
  Si  Si885  1  0.429497  0.538861  0.531216  1
  Si  Si886  1  0.429310  0.617827  0.531219  1
  Si  Si887  1  0.349391  0.841282  0.587903  1
  Si  Si888  1  0.353158  0.966278  0.588236  1
  Si  Si889  1  0.273728  0.904514  0.568414  1
  Si  Si890  1  0.267950  0.780731  0.568087  1
  Si  Si891  1  0.139799  0.928242  0.568110  1
  Si  Si892  1  0.133971  0.794343  0.587718  1
  Si  Si893  1  0.267782  0.701842  0.568216  1
  Si  Si894  1  0.069744  0.860848  0.568329  1
  Si  Si895  1  0.429800  0.862968  0.531215  1
  Si  Si896  1  0.430250  0.942809  0.531216  1
  Si  Si897  1  0.070263  0.757815  0.531227  1
  Si  Si898  1  0.070467  0.678805  0.531218  1
  Si  Si899  1  0.767980  0.280725  0.568076  1
  Si  Si900  1  0.734447  0.023906  0.568109  1
  Si  Si901  1  0.634000  0.294336  0.587704  1
  Si  Si902  1  0.767813  0.201837  0.568210  1
  Si  Si903  1  0.865333  0.003757  0.588456  1
  Si  Si904  1  0.736535  0.102520  0.568230  1
  Si  Si905  1  0.653075  0.161519  0.588466  1
  Si  Si906  1  0.851518  0.142191  0.588032  1
  Si  Si907  1  0.570300  0.257814  0.531208  1
  Si  Si908  1  0.929530  0.038855  0.531216  1
  Si  Si909  1  0.570500  0.178804  0.531209  1
  Si  Si910  1  0.929341  0.117821  0.531217  1
  Si  Si911  1  0.849413  0.341276  0.587898  1
  Si  Si912  1  0.853158  0.466278  0.588236  1
  Si  Si913  1  0.773743  0.404508  0.568416  1
  Si  Si914  1  0.765516  0.523903  0.568113  1
  Si  Si915  1  0.639814  0.428238  0.568116  1
  Si  Si916  1  0.634626  0.503750  0.588451  1
  Si  Si917  1  0.763446  0.602516  0.568236  1
  Si  Si918  1  0.569767  0.360841  0.568319  1
  Si  Si919  1  0.846888  0.661524  0.588472  1
  Si  Si920  1  0.648456  0.642185  0.588030  1
  Si  Si921  1  0.929817  0.362972  0.531212  1
  Si  Si922  1  0.930251  0.442814  0.531214  1
  Si  Si923  1  0.570430  0.538845  0.531212  1
  Si  Si924  1  0.570636  0.617812  0.531214  1
  Si  Si925  1  0.650556  0.841288  0.587888  1
  Si  Si926  1  0.646771  0.966295  0.588226  1
  Si  Si927  1  0.726205  0.904530  0.568416  1
  Si  Si928  1  0.731980  0.780726  0.568082  1
  Si  Si929  1  0.860143  0.928246  0.568123  1
  Si  Si930  1  0.865958  0.794335  0.587718  1
  Si  Si931  1  0.732149  0.701838  0.568211  1
  Si  Si932  1  0.930174  0.860844  0.568331  1
  Si  Si933  1  0.570154  0.862980  0.531200  1
  Si  Si934  1  0.569703  0.942822  0.531198  1
  Si  Si935  1  0.929669  0.757816  0.531224  1
  Si  Si936  1  0.929465  0.678807  0.531216  1
  H  H937  1  0.387795  0.280331  0.119473  1
  H  H938  1  0.110070  0.017307  0.119108  1
  H  H939  1  0.382189  0.164797  0.119147  1
  H  H940  1  0.114764  0.137151  0.119301  1
  H  H941  1  0.115815  0.344763  0.119586  1
  H  H942  1  0.113249  0.461437  0.119189  1
  H  H943  1  0.389908  0.517320  0.119118  1
  H  H944  1  0.117786  0.664791  0.119158  1
  H  H945  1  0.385223  0.637153  0.119314  1
  H  H946  1  0.384210  0.844744  0.119605  1
  H  H947  1  0.386724  0.961422  0.119213  1
  H  H948  1  0.112178  0.780311  0.119500  1
  H  H949  1  0.612205  0.280321  0.119485  1
  H  H950  1  0.889951  0.017312  0.119119  1
  H  H951  1  0.617810  0.164793  0.119155  1
  H  H952  1  0.885258  0.137147  0.119311  1
  H  H953  1  0.884219  0.344744  0.119600  1
  H  H954  1  0.886726  0.461423  0.119208  1
  H  H955  1  0.610037  0.517308  0.119117  1
  H  H956  1  0.882156  0.664791  0.119156  1
  H  H957  1  0.614741  0.637142  0.119311  1
  H  H958  1  0.615806  0.844766  0.119587  1
  H  H959  1  0.613248  0.961442  0.119191  1
  H  H960  1  0.887770  0.780316  0.119498  1
  H  H961  1  0.387806  0.280316  0.642289  1
  H  H962  1  0.110056  0.017312  0.642664  1
  H  H963  1  0.382193  0.164797  0.642624  1
  H  H964  1  0.114763  0.137148  0.642473  1
  H  H965  1  0.115789  0.344759  0.642176  1
  H  H966  1  0.113210  0.461437  0.642568  1
  H  H967  1  0.389905  0.517315  0.642677  1
  H  H968  1  0.117777  0.664795  0.642637  1
  H  H969  1  0.385222  0.637155  0.642488  1
  H  H970  1  0.384174  0.844750  0.642197  1
  H  H971  1  0.386679  0.961421  0.642592  1
  H  H972  1  0.112176  0.780330  0.642315  1
  H  H973  1  0.612213  0.280319  0.642300  1
  H  H974  1  0.889930  0.017315  0.642677  1
  H  H975  1  0.617816  0.164788  0.642635  1
  H  H976  1  0.885242  0.137148  0.642484  1
  H  H977  1  0.884196  0.344743  0.642192  1
  H  H978  1  0.886693  0.461418  0.642588  1
  H  H979  1  0.610028  0.517306  0.642673  1
  H  H980  1  0.882159  0.664798  0.642637  1
  H  H981  1  0.614734  0.637144  0.642483  1
  H  H982  1  0.615765  0.844764  0.642178  1
  H  H983  1  0.613198  0.961446  0.642569  1
  H  H984  1  0.887762  0.780327  0.642315  1
