# generated using pymatgen
data_SiO2
_symmetry_space_group_name_H-M   'P 1'
_cell_length_a   14.22215015
_cell_length_b   56.52875268
_cell_length_c   20.03147368
_cell_angle_alpha   90.00000000
_cell_angle_beta   90.00000000
_cell_angle_gamma   90.00000000
_symmetry_Int_Tables_number   1
_chemical_formula_structural   SiO2
_chemical_formula_sum   'Si288 O576'
_cell_volume   16104.5117602
_cell_formula_units_Z   288
loop_
 _symmetry_equiv_pos_site_id
 _symmetry_equiv_pos_as_xyz
  1  'x, y, z'
loop_
 _atom_site_type_symbol
 _atom_site_label
 _atom_site_symmetry_multiplicity
 _atom_site_fract_x
 _atom_site_fract_y
 _atom_site_fract_z
 _atom_site_occupancy
  O  O1  1  0.092463  0.066551  0.044590  1
  O  O2  1  0.907505  0.066552  0.044594  1
  O  O3  1  0.907493  0.066556  0.455466  1
  O  O4  1  0.092455  0.066554  0.455493  1
  O  O5  1  0.999987  0.094317  0.124009  1
  O  O6  1  0.000004  0.094326  0.376077  1
  O  O7  1  0.907218  0.130540  0.161705  1
  O  O8  1  0.092794  0.130533  0.161720  1
  O  O9  1  0.092788  0.130548  0.338359  1
  O  O10  1  0.907210  0.130544  0.338371  1
  O  O11  1  0.999991  0.108708  0.250046  1
  O  O12  1  0.999959  0.215741  0.250036  1
  O  O13  1  0.090022  0.195810  0.154372  1
  O  O14  1  0.909959  0.195887  0.154199  1
  O  O15  1  0.909929  0.195887  0.345876  1
  O  O16  1  0.089989  0.195822  0.345782  1
  O  O17  1  0.000467  0.232647  0.126868  1
  O  O18  1  0.000383  0.232654  0.373167  1
  Si  Si19  1  0.499913  0.251190  0.326319  1
  Si  Si20  1  0.499954  0.251191  0.173645  1
  O  O21  1  0.096575  0.261386  0.442555  1
  O  O22  1  0.903979  0.261607  0.441283  1
  O  O23  1  0.904053  0.261604  0.058749  1
  O  O24  1  0.096641  0.261366  0.057406  1
  O  O25  1  0.239110  0.038719  0.051198  1
  O  O26  1  0.760868  0.038712  0.051204  1
  O  O27  1  0.760867  0.038716  0.448869  1
  O  O28  1  0.239118  0.038728  0.448873  1
  O  O29  1  0.254686  0.084493  0.050570  1
  O  O30  1  0.745267  0.084482  0.050682  1
  O  O31  1  0.745250  0.084486  0.449394  1
  O  O32  1  0.254659  0.084504  0.449487  1
  O  O33  1  0.213285  0.163736  0.154518  1
  O  O34  1  0.786849  0.163767  0.154572  1
  O  O35  1  0.786821  0.163769  0.345463  1
  O  O36  1  0.213281  0.163760  0.345498  1
  O  O37  1  0.260282  0.121094  0.125430  1
  O  O38  1  0.739690  0.121126  0.125440  1
  O  O39  1  0.739677  0.121129  0.374631  1
  O  O40  1  0.260274  0.121118  0.374664  1
  O  O41  1  0.220065  0.133443  0.250043  1
  O  O42  1  0.779982  0.133451  0.250032  1
  O  O43  1  0.260157  0.208685  0.151897  1
  O  O44  1  0.739760  0.208678  0.151929  1
  O  O45  1  0.739728  0.208680  0.348085  1
  O  O46  1  0.260079  0.208715  0.348088  1
  O  O47  1  0.187379  0.188706  0.050065  1
  O  O48  1  0.812478  0.188680  0.050012  1
  O  O49  1  0.812332  0.188673  0.450027  1
  O  O50  1  0.187598  0.188697  0.450003  1
  O  O51  1  0.240211  0.290201  0.051076  1
  O  O52  1  0.759517  0.290137  0.050970  1
  O  O53  1  0.759460  0.290133  0.449089  1
  O  O54  1  0.240221  0.290180  0.449130  1
  O  O55  1  0.252060  0.250104  0.000341  1
  O  O56  1  0.245577  0.252516  0.126257  1
  O  O57  1  0.753896  0.252444  0.125976  1
  O  O58  1  0.753824  0.252450  0.374033  1
  O  O59  1  0.245461  0.252572  0.373576  1
  O  O60  1  0.697936  0.003659  0.125898  1
  O  O61  1  0.302008  0.003656  0.125888  1
  O  O62  1  0.302047  0.003669  0.374176  1
  O  O63  1  0.697965  0.003657  0.374189  1
  O  O64  1  0.410513  0.029285  0.053060  1
  O  O65  1  0.589444  0.029292  0.053066  1
  O  O66  1  0.589455  0.029291  0.447017  1
  O  O67  1  0.410526  0.029296  0.447009  1
  O  O68  1  0.405055  0.108082  0.051051  1
  O  O69  1  0.594887  0.108073  0.051095  1
  O  O70  1  0.594873  0.108079  0.448982  1
  O  O71  1  0.405040  0.108086  0.449022  1
  Si  Si72  1  0.499961  0.096829  0.474385  1
  Si  Si73  1  0.499974  0.096824  0.025693  1
  Si  Si74  1  0.499992  0.042002  0.474588  1
  Si  Si75  1  0.499972  0.041997  0.025492  1
  O  O76  1  0.405097  0.237063  0.162594  1
  O  O77  1  0.594744  0.237024  0.162651  1
  O  O78  1  0.594691  0.237017  0.337319  1
  O  O79  1  0.405015  0.237080  0.337362  1
  O  O80  1  0.274196  0.237617  0.249950  1
  O  O81  1  0.725625  0.237637  0.250004  1
  O  O82  1  0.409193  0.302810  0.051022  1
  O  O83  1  0.590622  0.302700  0.050810  1
  O  O84  1  0.590597  0.302708  0.449165  1
  O  O85  1  0.409165  0.302799  0.448924  1
  O  O86  1  0.499955  0.069394  0.038524  1
  O  O87  1  0.499970  0.069399  0.461558  1
  O  O88  1  0.499929  0.258468  0.249983  1
  O  O89  1  0.500072  0.273042  0.125050  1
  O  O90  1  0.500086  0.273038  0.374921  1
  Si  Si91  1  0.197833  0.062645  0.024658  1
  Si  Si92  1  0.802125  0.062644  0.024693  1
  Si  Si93  1  0.802117  0.062649  0.475379  1
  Si  Si94  1  0.197832  0.062653  0.475415  1
  Si  Si95  1  0.189926  0.189071  0.127787  1
  Si  Si96  1  0.810071  0.189094  0.127743  1
  Si  Si97  1  0.810019  0.189097  0.372296  1
  Si  Si98  1  0.189949  0.189091  0.372277  1
  Si  Si99  1  0.206986  0.263850  0.059950  1
  Si  Si100  1  0.793468  0.263876  0.060159  1
  Si  Si101  1  0.793393  0.263874  0.439865  1
  Si  Si102  1  0.206934  0.263853  0.439996  1
  Si  Si103  1  0.310752  0.017879  0.058954  1
  Si  Si104  1  0.689192  0.017879  0.058961  1
  Si  Si105  1  0.689206  0.017879  0.441121  1
  Si  Si106  1  0.310769  0.017890  0.441112  1
  Si  Si107  1  0.308541  0.310405  0.027835  1
  Si  Si108  1  0.691236  0.310341  0.027786  1
  Si  Si109  1  0.691195  0.310344  0.472242  1
  Si  Si110  1  0.308565  0.310396  0.472222  1
  Si  Si111  1  0.294796  0.110130  0.057687  1
  Si  Si112  1  0.705144  0.110120  0.057759  1
  Si  Si113  1  0.705130  0.110124  0.442313  1
  Si  Si114  1  0.294783  0.110140  0.442389  1
  Si  Si115  1  0.295375  0.233970  0.173039  1
  Si  Si116  1  0.704476  0.233953  0.173067  1
  Si  Si117  1  0.704436  0.233954  0.326937  1
  Si  Si118  1  0.295293  0.233994  0.326882  1
  Si  Si119  1  0.199649  0.137013  0.173316  1
  Si  Si120  1  0.800385  0.137037  0.173307  1
  Si  Si121  1  0.800375  0.137037  0.326758  1
  Si  Si122  1  0.199641  0.137031  0.326764  1
  Si  Si123  1  0.999985  0.081156  0.054941  1
  Si  Si124  1  0.999978  0.081159  0.445134  1
  Si  Si125  1  0.000118  0.247848  0.438523  1
  Si  Si126  1  0.000177  0.247836  0.061501  1
  Si  Si127  1  0.499803  0.287422  0.441900  1
  Si  Si128  1  0.499804  0.287424  0.058067  1
  Si  Si129  1  0.000043  0.210292  0.172890  1
  Si  Si130  1  0.000015  0.210290  0.327183  1
  Si  Si131  1  0.999995  0.115810  0.173618  1
  Si  Si132  1  0.000000  0.115819  0.326468  1
  O  O133  1  0.999238  0.230873  0.499838  1
  O  O134  1  0.999241  0.230862  0.000184  1
  O  O135  1  0.251920  0.249942  0.499330  1
  O  O136  1  0.000000  0.100453  0.999106  1
  O  O137  1  0.999973  0.100452  0.500977  1
  O  O138  1  0.500000  0.284260  0.750029  1
  O  O139  1  0.590052  0.304179  0.654320  1
  O  O140  1  0.409988  0.304121  0.654220  1
  O  O141  1  0.410024  0.304110  0.845923  1
  O  O142  1  0.590086  0.304177  0.845736  1
  O  O143  1  0.500402  0.267356  0.626848  1
  O  O144  1  0.500485  0.267346  0.873165  1
  Si  Si145  1  0.999983  0.248803  0.826327  1
  Si  Si146  1  0.999950  0.248806  0.673656  1
  O  O147  1  0.596649  0.238629  0.942611  1
  O  O148  1  0.404057  0.238390  0.941282  1
  O  O149  1  0.403992  0.238412  0.558672  1
  O  O150  1  0.596578  0.238633  0.557418  1
  O  O151  1  0.499913  0.068698  0.641996  1
  O  O152  1  0.499911  0.068695  0.858079  1
  O  O153  1  0.405855  0.106450  0.657174  1
  O  O154  1  0.593975  0.106437  0.657193  1
  O  O155  1  0.593987  0.106435  0.842888  1
  O  O156  1  0.405868  0.106450  0.842910  1
  O  O157  1  0.499958  0.099519  0.551782  1
  O  O158  1  0.499976  0.099513  0.948297  1
  O  O159  1  0.499978  0.038288  0.551806  1
  O  O160  1  0.499976  0.038286  0.948273  1
  O  O161  1  0.589807  0.029740  0.658534  1
  O  O162  1  0.410128  0.029736  0.658527  1
  O  O163  1  0.410136  0.029729  0.841554  1
  O  O164  1  0.589817  0.029739  0.841551  1
  O  O165  1  0.205210  0.062854  0.946934  1
  O  O166  1  0.794712  0.062863  0.946966  1
  O  O167  1  0.794714  0.062866  0.553107  1
  O  O168  1  0.205221  0.062863  0.553140  1
  O  O169  1  0.760145  0.291294  0.651903  1
  O  O170  1  0.239755  0.291335  0.651915  1
  O  O171  1  0.239831  0.291302  0.848067  1
  O  O172  1  0.760181  0.291291  0.848111  1
  O  O173  1  0.687442  0.311289  0.550026  1
  O  O174  1  0.312501  0.311318  0.550016  1
  O  O175  1  0.312278  0.311330  0.950033  1
  O  O176  1  0.687556  0.311294  0.950002  1
  O  O177  1  0.740184  0.209817  0.550956  1
  O  O178  1  0.259478  0.209863  0.551007  1
  O  O179  1  0.259484  0.209881  0.949217  1
  O  O180  1  0.740227  0.209819  0.949119  1
  O  O181  1  0.752047  0.250020  0.999446  1
  O  O182  1  0.751991  0.249995  0.500543  1
  Si  Si183  1  0.499966  0.041435  0.871053  1
  O  O184  1  0.745496  0.247452  0.626357  1
  O  O185  1  0.253852  0.247577  0.625898  1
  O  O186  1  0.253964  0.247518  0.873932  1
  O  O187  1  0.745561  0.247445  0.873653  1
  O  O188  1  0.715627  0.112719  0.750038  1
  O  O189  1  0.284256  0.112747  0.750048  1
  O  O190  1  0.752038  0.126022  0.626337  1
  O  O191  1  0.247825  0.126060  0.626353  1
  O  O192  1  0.247851  0.126064  0.873744  1
  O  O193  1  0.752057  0.126020  0.873738  1
  O  O194  1  0.744610  0.082927  0.658426  1
  O  O195  1  0.255217  0.082956  0.658443  1
  O  O196  1  0.255229  0.082958  0.841656  1
  O  O197  1  0.744624  0.082925  0.841644  1
  O  O198  1  0.761107  0.037741  0.655368  1
  O  O199  1  0.238841  0.037757  0.655409  1
  O  O200  1  0.238856  0.037756  0.844664  1
  O  O201  1  0.761120  0.037738  0.844709  1
  O  O202  1  0.692569  0.012550  0.750041  1
  O  O203  1  0.307378  0.012550  0.750039  1
  O  O204  1  0.298952  0.000007  0.500032  1
  O  O205  1  0.905075  0.262928  0.662623  1
  O  O206  1  0.094724  0.262979  0.662640  1
  O  O207  1  0.094803  0.262955  0.837338  1
  O  O208  1  0.905125  0.262933  0.837358  1
  O  O209  1  0.774230  0.262375  0.750005  1
  O  O210  1  0.225671  0.262364  0.749953  1
  O  O211  1  0.909151  0.197210  0.551053  1
  O  O212  1  0.090580  0.197292  0.550755  1
  O  O213  1  0.090625  0.197301  0.949201  1
  O  O214  1  0.909167  0.197208  0.948914  1
  O  O215  1  0.785175  0.164263  0.555179  1
  O  O216  1  0.214508  0.164313  0.555212  1
  O  O217  1  0.214559  0.164318  0.944894  1
  O  O218  1  0.785189  0.164260  0.944891  1
  O  O219  1  0.905406  0.131073  0.560282  1
  O  O220  1  0.094489  0.131086  0.560285  1
  O  O221  1  0.094507  0.131093  0.939797  1
  O  O222  1  0.905426  0.131072  0.939798  1
  O  O223  1  0.907916  0.064971  0.653178  1
  O  O224  1  0.091982  0.064970  0.653184  1
  O  O225  1  0.091994  0.064970  0.846886  1
  O  O226  1  0.907930  0.064971  0.846907  1
  O  O227  1  0.999982  0.241527  0.749991  1
  O  O228  1  0.000019  0.226960  0.625054  1
  O  O229  1  0.999980  0.226960  0.874939  1
  O  O230  1  0.999960  0.101381  0.628175  1
  O  O231  1  0.999987  0.101382  0.871909  1
  O  O232  1  0.999945  0.083981  0.750041  1
  Si  Si233  1  0.689967  0.310913  0.627752  1
  Si  Si234  1  0.310105  0.310913  0.627745  1
  Si  Si235  1  0.310082  0.310892  0.872302  1
  Si  Si236  1  0.690018  0.310911  0.872275  1
  Si  Si237  1  0.706929  0.236154  0.559980  1
  Si  Si238  1  0.293411  0.236131  0.560102  1
  Si  Si239  1  0.293462  0.236126  0.939845  1
  Si  Si240  1  0.707000  0.236156  0.940046  1
  Si  Si241  1  0.808536  0.189607  0.527824  1
  Si  Si242  1  0.191225  0.189655  0.527787  1
  Si  Si243  1  0.191216  0.189662  0.972288  1
  Si  Si244  1  0.808581  0.189606  0.972214  1
  Si  Si245  1  0.797311  0.136755  0.561841  1
  Si  Si246  1  0.202557  0.136796  0.561854  1
  Si  Si247  1  0.202580  0.136801  0.938242  1
  Si  Si248  1  0.797330  0.136752  0.938234  1
  Si  Si249  1  0.803164  0.061730  0.630610  1
  Si  Si250  1  0.196752  0.061741  0.630642  1
  Si  Si251  1  0.196762  0.061740  0.869433  1
  Si  Si252  1  0.803175  0.061728  0.869464  1
  Si  Si253  1  0.701873  0.107880  0.673468  1
  Si  Si254  1  0.297967  0.107907  0.673473  1
  Si  Si255  1  0.297977  0.107909  0.826623  1
  Si  Si256  1  0.701883  0.107879  0.826609  1
  Si  Si257  1  0.687376  0.018212  0.673491  1
  Si  Si258  1  0.312547  0.018218  0.673491  1
  Si  Si259  1  0.312551  0.018214  0.826589  1
  Si  Si260  1  0.687383  0.018210  0.826593  1
  Si  Si261  1  0.795349  0.266012  0.673083  1
  Si  Si262  1  0.204458  0.266058  0.673028  1
  Si  Si263  1  0.204532  0.266031  0.826898  1
  Si  Si264  1  0.795387  0.266010  0.826923  1
  Si  Si265  1  0.500181  0.252159  0.938537  1
  Si  Si266  1  0.500126  0.252173  0.561469  1
  Si  Si267  1  0.999816  0.212584  0.941934  1
  Si  Si268  1  0.999802  0.212584  0.558058  1
  Si  Si269  1  0.999965  0.116903  0.563462  1
  Si  Si270  1  0.999991  0.116904  0.936621  1
  Si  Si271  1  0.999947  0.078627  0.672915  1
  Si  Si272  1  0.999958  0.078628  0.827168  1
  Si  Si273  1  0.500066  0.289709  0.672881  1
  Si  Si274  1  0.500095  0.289709  0.827177  1
  Si  Si275  1  0.499909  0.096038  0.628839  1
  Si  Si276  1  0.499921  0.096035  0.871239  1
  Si  Si277  1  0.499963  0.041438  0.629026  1
  O  O278  1  0.749144  0.124804  0.500495  1
  O  O279  1  0.250763  0.124848  0.500517  1
  O  O280  1  0.499250  0.269146  0.500150  1
  O  O281  1  0.250763  0.124847  0.999580  1
  O  O282  1  0.749159  0.124801  0.999579  1
  O  O283  1  0.499239  0.269139  0.999841  1
  O  O284  1  0.592546  0.566545  0.044564  1
  O  O285  1  0.407588  0.566551  0.044589  1
  O  O286  1  0.407583  0.566554  0.455473  1
  O  O287  1  0.592543  0.566553  0.455450  1
  O  O288  1  0.500074  0.399550  0.499087  1
  O  O289  1  0.500102  0.399553  0.000958  1
  O  O290  1  0.500133  0.594316  0.123990  1
  O  O291  1  0.500022  0.594323  0.376057  1
  O  O292  1  0.407310  0.630526  0.161681  1
  O  O293  1  0.592885  0.630547  0.161707  1
  O  O294  1  0.592834  0.630534  0.338358  1
  O  O295  1  0.407260  0.630551  0.338336  1
  O  O296  1  0.500075  0.608706  0.250024  1
  O  O297  1  0.000013  0.431303  0.141956  1
  O  O298  1  0.000011  0.431305  0.358065  1
  O  O299  1  0.905999  0.393546  0.157139  1
  O  O300  1  0.094122  0.393574  0.157170  1
  O  O301  1  0.094099  0.393570  0.342870  1
  O  O302  1  0.905979  0.393548  0.342893  1
  O  O303  1  0.000104  0.400480  0.051748  1
  O  O304  1  0.000082  0.400485  0.448282  1
  O  O305  1  0.000094  0.461714  0.051770  1
  O  O306  1  0.000109  0.461715  0.448255  1
  O  O307  1  0.089952  0.470252  0.158499  1
  O  O308  1  0.910274  0.470273  0.158499  1
  O  O309  1  0.910255  0.470273  0.341539  1
  O  O310  1  0.089934  0.470258  0.341521  1
  O  O311  1  0.739202  0.538717  0.051197  1
  O  O312  1  0.260962  0.538710  0.051155  1
  O  O313  1  0.260914  0.538731  0.448831  1
  O  O314  1  0.739162  0.538709  0.448863  1
  O  O315  1  0.705361  0.437135  0.446918  1
  O  O316  1  0.294854  0.437146  0.446954  1
  O  O317  1  0.294845  0.437136  0.053078  1
  O  O318  1  0.705347  0.437135  0.053109  1
  O  O319  1  0.754750  0.584494  0.050636  1
  O  O320  1  0.245333  0.584476  0.050601  1
  O  O321  1  0.245390  0.584507  0.449405  1
  O  O322  1  0.754799  0.584477  0.449432  1
  O  O323  1  0.713356  0.663772  0.154621  1
  O  O324  1  0.286906  0.663734  0.154455  1
  O  O325  1  0.286818  0.663781  0.345401  1
  O  O326  1  0.713262  0.663742  0.345562  1
  O  O327  1  0.760380  0.621127  0.125426  1
  O  O328  1  0.239788  0.621095  0.125412  1
  O  O329  1  0.239754  0.621140  0.374619  1
  O  O330  1  0.760348  0.621101  0.374635  1
  O  O331  1  0.720112  0.633446  0.250042  1
  O  O332  1  0.280037  0.633448  0.250001  1
  O  O333  1  0.215755  0.387292  0.250029  1
  O  O334  1  0.784394  0.387250  0.250012  1
  O  O335  1  0.252193  0.373996  0.126331  1
  O  O336  1  0.747973  0.373935  0.126315  1
  O  O337  1  0.747949  0.373936  0.373710  1
  O  O338  1  0.252158  0.373986  0.373729  1
  O  O339  1  0.244749  0.417087  0.158423  1
  O  O340  1  0.755363  0.417039  0.158404  1
  O  O341  1  0.755341  0.417040  0.341614  1
  O  O342  1  0.244735  0.417081  0.341646  1
  O  O343  1  0.261266  0.462272  0.155329  1
  O  O344  1  0.738997  0.462238  0.155380  1
  O  O345  1  0.738977  0.462240  0.344646  1
  O  O346  1  0.261240  0.462268  0.344691  1
  O  O347  1  0.197996  0.503665  0.125870  1
  O  O348  1  0.802091  0.503652  0.125869  1
  O  O349  1  0.802083  0.503653  0.374164  1
  O  O350  1  0.198007  0.503667  0.374152  1
  O  O351  1  0.192682  0.487451  0.250012  1
  O  O352  1  0.807497  0.487447  0.250016  1
  O  O353  1  0.910602  0.529280  0.053037  1
  O  O354  1  0.089531  0.529296  0.053032  1
  O  O355  1  0.089514  0.529289  0.446993  1
  O  O356  1  0.910585  0.529294  0.446979  1
  O  O357  1  0.798996  0.499994  0.000015  1
  Si  Si358  1  0.000096  0.596826  0.474361  1
  O  O359  1  0.905123  0.608082  0.051045  1
  O  O360  1  0.094956  0.608069  0.051074  1
  O  O361  1  0.095005  0.608087  0.448989  1
  O  O362  1  0.905171  0.608073  0.448969  1
  Si  Si363  1  0.000035  0.596823  0.025673  1
  Si  Si364  1  0.000053  0.542000  0.474561  1
  Si  Si365  1  0.000048  0.541997  0.025462  1
  Si  Si366  1  0.000083  0.458565  0.371034  1
  O  O367  1  0.285231  0.335753  0.055182  1
  O  O368  1  0.714568  0.335684  0.055180  1
  O  O369  1  0.714566  0.335687  0.444864  1
  O  O370  1  0.285197  0.335745  0.444898  1
  O  O371  1  0.405537  0.368933  0.060256  1
  O  O372  1  0.594619  0.368918  0.060264  1
  O  O373  1  0.594607  0.368919  0.439780  1
  O  O374  1  0.405525  0.368925  0.439778  1
  O  O375  1  0.408068  0.435037  0.153146  1
  O  O376  1  0.592134  0.435030  0.153167  1
  O  O377  1  0.592113  0.435029  0.346882  1
  O  O378  1  0.408048  0.435035  0.346883  1
  O  O379  1  0.000008  0.569394  0.038496  1
  O  O380  1  0.000102  0.569397  0.461531  1
  O  O381  1  0.500093  0.398623  0.128158  1
  O  O382  1  0.500071  0.398622  0.371888  1
  O  O383  1  0.500072  0.416025  0.250022  1
  Si  Si384  1  0.697935  0.562646  0.024670  1
  Si  Si385  1  0.302227  0.562641  0.024644  1
  Si  Si386  1  0.302193  0.562657  0.475366  1
  Si  Si387  1  0.697908  0.562640  0.475383  1
  Si  Si388  1  0.810840  0.517875  0.058938  1
  Si  Si389  1  0.189272  0.517881  0.058926  1
  Si  Si390  1  0.189280  0.517888  0.441087  1
  Si  Si391  1  0.810841  0.517877  0.441095  1
  Si  Si392  1  0.297433  0.363260  0.061829  1
  Si  Si393  1  0.702679  0.363202  0.061820  1
  Si  Si394  1  0.702669  0.363205  0.438213  1
  Si  Si395  1  0.297419  0.363252  0.438227  1
  Si  Si396  1  0.303315  0.438280  0.130581  1
  Si  Si397  1  0.696900  0.438255  0.130611  1
  Si  Si398  1  0.696888  0.438256  0.369417  1
  Si  Si399  1  0.303298  0.438279  0.369451  1
  Si  Si400  1  0.202012  0.392134  0.173460  1
  Si  Si401  1  0.798110  0.392088  0.173437  1
  Si  Si402  1  0.798093  0.392089  0.326588  1
  Si  Si403  1  0.201998  0.392129  0.326600  1
  Si  Si404  1  0.187499  0.481791  0.173461  1
  Si  Si405  1  0.812678  0.481782  0.173467  1
  Si  Si406  1  0.812664  0.481783  0.326567  1
  Si  Si407  1  0.187491  0.481792  0.326564  1
  Si  Si408  1  0.794869  0.610132  0.057716  1
  Si  Si409  1  0.205217  0.610112  0.057708  1
  Si  Si410  1  0.205258  0.610144  0.442326  1
  Si  Si411  1  0.794909  0.610114  0.442335  1
  Si  Si412  1  0.699726  0.637039  0.173318  1
  Si  Si413  1  0.300466  0.637013  0.173272  1
  Si  Si414  1  0.300424  0.637046  0.326722  1
  Si  Si415  1  0.699682  0.637019  0.326768  1
  Si  Si416  1  0.500077  0.581153  0.054927  1
  Si  Si417  1  0.500063  0.581158  0.445117  1
  Si  Si418  1  0.500098  0.383102  0.063443  1
  Si  Si419  1  0.500077  0.383099  0.436601  1
  Si  Si420  1  0.500087  0.421378  0.172895  1
  Si  Si421  1  0.500072  0.421376  0.327149  1
  Si  Si422  1  0.500117  0.615810  0.173597  1
  Si  Si423  1  0.500033  0.615815  0.326447  1
  Si  Si424  1  0.000045  0.403963  0.128804  1
  Si  Si425  1  0.000027  0.403965  0.371224  1
  Si  Si426  1  0.000090  0.458564  0.128990  1
  O  O427  1  0.201083  0.499996  0.000012  1
  O  O428  1  0.750887  0.375153  0.499546  1
  O  O429  1  0.249276  0.375207  0.499574  1
  O  O430  1  0.249256  0.375208  0.000484  1
  O  O431  1  0.750879  0.375149  0.000478  1
  O  O432  1  0.592582  0.433446  0.544560  1
  O  O433  1  0.407625  0.433452  0.544597  1
  O  O434  1  0.407617  0.433447  0.955437  1
  O  O435  1  0.592579  0.433444  0.955456  1
  O  O436  1  0.500074  0.600447  0.999088  1
  O  O437  1  0.500074  0.600451  0.500957  1
  O  O438  1  0.500119  0.405680  0.623992  1
  O  O439  1  0.500104  0.405670  0.876055  1
  O  O440  1  0.407322  0.369462  0.661690  1
  O  O441  1  0.592897  0.369458  0.661694  1
  O  O442  1  0.592900  0.369451  0.838339  1
  O  O443  1  0.407326  0.369447  0.838352  1
  O  O444  1  0.500106  0.391288  0.750026  1
  O  O445  1  0.000111  0.568697  0.641971  1
  O  O446  1  0.000032  0.568696  0.858056  1
  O  O447  1  0.906027  0.606433  0.657182  1
  O  O448  1  0.094147  0.606453  0.657134  1
  O  O449  1  0.094108  0.606436  0.842854  1
  O  O450  1  0.905988  0.606448  0.842900  1
  O  O451  1  0.000065  0.599517  0.551757  1
  O  O452  1  0.000074  0.599515  0.948277  1
  O  O453  1  0.000041  0.538286  0.551779  1
  O  O454  1  0.000055  0.538285  0.948244  1
  O  O455  1  0.089890  0.529732  0.658498  1
  O  O456  1  0.910210  0.529741  0.658509  1
  O  O457  1  0.910229  0.529731  0.841521  1
  O  O458  1  0.089911  0.529739  0.841524  1
  O  O459  1  0.739239  0.461272  0.551182  1
  O  O460  1  0.261000  0.461296  0.551188  1
  O  O461  1  0.260980  0.461287  0.948842  1
  O  O462  1  0.739226  0.461271  0.948842  1
  O  O463  1  0.705343  0.562856  0.946945  1
  O  O464  1  0.294844  0.562863  0.946917  1
  O  O465  1  0.294786  0.562867  0.553091  1
  O  O466  1  0.705298  0.562857  0.553110  1
  O  O467  1  0.754787  0.415497  0.550579  1
  O  O468  1  0.245369  0.415528  0.550661  1
  O  O469  1  0.245377  0.415519  0.949355  1
  O  O470  1  0.754787  0.415496  0.949453  1
  O  O471  1  0.713347  0.336243  0.654514  1
  O  O472  1  0.286900  0.336246  0.654537  1
  O  O473  1  0.286913  0.336220  0.845446  1
  O  O474  1  0.713378  0.336241  0.845497  1
  O  O475  1  0.760393  0.378883  0.625399  1
  O  O476  1  0.239803  0.378890  0.625438  1
  O  O477  1  0.239809  0.378866  0.874617  1
  O  O478  1  0.760393  0.378882  0.874627  1
  O  O479  1  0.720164  0.366549  0.750012  1
  O  O480  1  0.280089  0.366546  0.750026  1
  O  O481  1  0.215747  0.612738  0.749999  1
  O  O482  1  0.784381  0.612727  0.750038  1
  O  O483  1  0.252182  0.626066  0.626304  1
  O  O484  1  0.747972  0.626017  0.626339  1
  O  O485  1  0.747945  0.626053  0.873735  1
  O  O486  1  0.252158  0.626022  0.873707  1
  O  O487  1  0.244789  0.582960  0.658374  1
  O  O488  1  0.755394  0.582923  0.658441  1
  O  O489  1  0.755359  0.582947  0.841664  1
  O  O490  1  0.244749  0.582930  0.841585  1
  O  O491  1  0.261172  0.537763  0.655373  1
  O  O492  1  0.738904  0.537735  0.655359  1
  O  O493  1  0.738946  0.537750  0.844664  1
  O  O494  1  0.261215  0.537741  0.844670  1
  O  O495  1  0.198059  0.496351  0.625864  1
  O  O496  1  0.802129  0.496335  0.625873  1
  O  O497  1  0.802092  0.496340  0.874162  1
  O  O498  1  0.198019  0.496340  0.874152  1
  O  O499  1  0.192663  0.512553  0.750010  1
  O  O500  1  0.807466  0.512546  0.750017  1
  O  O501  1  0.910642  0.470713  0.553043  1
  O  O502  1  0.089573  0.470710  0.553048  1
  O  O503  1  0.089548  0.470699  0.946968  1
  O  O504  1  0.910618  0.470713  0.946984  1
  Si  Si505  1  0.000078  0.403171  0.974351  1
  O  O506  1  0.201131  0.500007  0.500008  1
  O  O507  1  0.905165  0.391915  0.551041  1
  O  O508  1  0.094997  0.391930  0.551082  1
  O  O509  1  0.094996  0.391927  0.948937  1
  O  O510  1  0.905161  0.391910  0.948995  1
  Si  Si511  1  0.000078  0.403176  0.525678  1
  Si  Si512  1  0.000072  0.457998  0.974552  1
  Si  Si513  1  0.000103  0.458003  0.525473  1
  Si  Si514  1  0.000059  0.541435  0.871024  1
  O  O515  1  0.285506  0.664307  0.555105  1
  O  O516  1  0.714850  0.664269  0.555239  1
  O  O517  1  0.714666  0.664295  0.944934  1
  O  O518  1  0.285301  0.664269  0.944828  1
  O  O519  1  0.405549  0.631086  0.560254  1
  O  O520  1  0.594632  0.631075  0.560266  1
  O  O521  1  0.594582  0.631082  0.939784  1
  O  O522  1  0.405499  0.631071  0.939784  1
  O  O523  1  0.408026  0.564975  0.653149  1
  O  O524  1  0.592090  0.564967  0.653164  1
  O  O525  1  0.592108  0.564969  0.846888  1
  O  O526  1  0.408042  0.564968  0.846860  1
  O  O527  1  0.000067  0.430606  0.538505  1
  O  O528  1  0.000040  0.430601  0.961526  1
  O  O529  1  0.500071  0.601382  0.628154  1
  O  O530  1  0.500067  0.601379  0.871889  1
  O  O531  1  0.500078  0.583980  0.750018  1
  Si  Si532  1  0.697960  0.437347  0.524642  1
  Si  Si533  1  0.302252  0.437363  0.524682  1
  Si  Si534  1  0.302241  0.437355  0.975349  1
  Si  Si535  1  0.697954  0.437345  0.975384  1
  Si  Si536  1  0.810874  0.482114  0.558939  1
  Si  Si537  1  0.189314  0.482128  0.558935  1
  Si  Si538  1  0.189288  0.482117  0.941083  1
  Si  Si539  1  0.810850  0.482115  0.941090  1
  Si  Si540  1  0.297479  0.636794  0.561802  1
  Si  Si541  1  0.702726  0.636757  0.561845  1
  Si  Si542  1  0.702659  0.636783  0.938237  1
  Si  Si543  1  0.297409  0.636757  0.938206  1
  Si  Si544  1  0.303262  0.561745  0.630592  1
  Si  Si545  1  0.696849  0.561726  0.630613  1
  Si  Si546  1  0.696869  0.561735  0.869444  1
  Si  Si547  1  0.303282  0.561731  0.869413  1
  Si  Si548  1  0.202039  0.607911  0.673417  1
  Si  Si549  1  0.798135  0.607877  0.673474  1
  Si  Si550  1  0.798094  0.607900  0.826620  1
  Si  Si551  1  0.202000  0.607884  0.826562  1
  Si  Si552  1  0.187483  0.518221  0.673463  1
  Si  Si553  1  0.812652  0.518208  0.673467  1
  Si  Si554  1  0.812647  0.518211  0.826566  1
  Si  Si555  1  0.187479  0.518212  0.826562  1
  Si  Si556  1  0.794908  0.389861  0.557675  1
  Si  Si557  1  0.205255  0.389890  0.557749  1
  Si  Si558  1  0.205255  0.389881  0.942283  1
  Si  Si559  1  0.794904  0.389859  0.942354  1
  Si  Si560  1  0.699744  0.362970  0.673288  1
  Si  Si561  1  0.300483  0.362972  0.673297  1
  Si  Si562  1  0.300491  0.362952  0.826748  1
  Si  Si563  1  0.699750  0.362968  0.826737  1
  Si  Si564  1  0.500100  0.418844  0.554928  1
  Si  Si565  1  0.500097  0.418841  0.945104  1
  Si  Si566  1  0.500076  0.616904  0.563440  1
  Si  Si567  1  0.500056  0.616899  0.936604  1
  Si  Si568  1  0.500064  0.578627  0.672891  1
  Si  Si569  1  0.500079  0.578626  0.827145  1
  Si  Si570  1  0.500113  0.384187  0.673598  1
  Si  Si571  1  0.500105  0.384177  0.826448  1
  Si  Si572  1  0.000091  0.596037  0.628814  1
  Si  Si573  1  0.000050  0.596036  0.871219  1
  Si  Si574  1  0.000058  0.541436  0.628999  1
  O  O575  1  0.799033  0.499995  0.500018  1
  O  O576  1  0.750826  0.624828  0.999575  1
  O  O577  1  0.249216  0.624809  0.999548  1
  O  O578  1  0.249291  0.624841  0.500468  1
  O  O579  1  0.750908  0.624809  0.500498  1
  O  O580  1  0.000021  0.899553  0.499116  1
  O  O581  1  0.000006  0.899547  0.000987  1
  O  O582  1  0.500117  0.715741  0.250019  1
  O  O583  1  0.590001  0.695817  0.154260  1
  O  O584  1  0.409942  0.695876  0.154255  1
  O  O585  1  0.410186  0.695823  0.345771  1
  O  O586  1  0.590246  0.695885  0.345828  1
  O  O587  1  0.500337  0.732642  0.126849  1
  O  O588  1  0.499825  0.732652  0.373170  1
  Si  Si589  1  0.999854  0.751185  0.173674  1
  Si  Si590  1  0.500001  0.958568  0.371056  1
  O  O591  1  0.596115  0.761586  0.441452  1
  O  O592  1  0.403519  0.761397  0.442432  1
  O  O593  1  0.404055  0.761574  0.058544  1
  O  O594  1  0.596652  0.761384  0.057591  1
  O  O595  1  0.499970  0.931304  0.141998  1
  O  O596  1  0.500049  0.931307  0.358089  1
  O  O597  1  0.405936  0.893551  0.157156  1
  O  O598  1  0.594055  0.893566  0.157215  1
  O  O599  1  0.594105  0.893554  0.342924  1
  O  O600  1  0.405984  0.893570  0.342884  1
  O  O601  1  0.500036  0.900484  0.051786  1
  O  O602  1  0.500032  0.900487  0.448305  1
  O  O603  1  0.499992  0.961713  0.051803  1
  O  O604  1  0.499986  0.961718  0.448277  1
  O  O605  1  0.589848  0.970260  0.158529  1
  O  O606  1  0.410169  0.970270  0.158527  1
  O  O607  1  0.410158  0.970266  0.341548  1
  O  O608  1  0.589838  0.970270  0.341556  1
  O  O609  1  0.205242  0.937143  0.446947  1
  O  O610  1  0.794747  0.937140  0.446976  1
  O  O611  1  0.794784  0.937140  0.053131  1
  O  O612  1  0.205291  0.937137  0.053117  1
  O  O613  1  0.760016  0.708737  0.152216  1
  O  O614  1  0.239650  0.708632  0.151663  1
  O  O615  1  0.240171  0.708746  0.347819  1
  O  O616  1  0.760537  0.708639  0.348380  1
  O  O617  1  0.687750  0.688711  0.050133  1
  O  O618  1  0.312717  0.688673  0.049925  1
  O  O619  1  0.312420  0.688716  0.449895  1
  O  O620  1  0.687547  0.688666  0.450123  1
  O  O621  1  0.740358  0.790159  0.050973  1
  O  O622  1  0.259636  0.790152  0.050973  1
  O  O623  1  0.259805  0.790171  0.449060  1
  O  O624  1  0.740542  0.790151  0.449122  1
  O  O625  1  0.752012  0.749855  0.001092  1
  O  O626  1  0.745346  0.752598  0.126812  1
  O  O627  1  0.253708  0.752378  0.125515  1
  O  O628  1  0.254837  0.752610  0.373205  1
  O  O629  1  0.746483  0.752392  0.374498  1
  O  O630  1  0.715711  0.887270  0.250065  1
  O  O631  1  0.284344  0.887271  0.250025  1
  O  O632  1  0.752101  0.873974  0.126368  1
  O  O633  1  0.247897  0.873942  0.126334  1
  O  O634  1  0.247926  0.873988  0.373728  1
  O  O635  1  0.752140  0.873943  0.373761  1
  O  O636  1  0.744697  0.917069  0.158456  1
  O  O637  1  0.255298  0.917048  0.158400  1
  O  O638  1  0.255350  0.917079  0.341613  1
  O  O639  1  0.744741  0.917050  0.341690  1
  O  O640  1  0.761152  0.962259  0.155384  1
  O  O641  1  0.238889  0.962245  0.155397  1
  O  O642  1  0.238857  0.962267  0.344701  1
  O  O643  1  0.761123  0.962247  0.344698  1
  O  O644  1  0.692601  0.987449  0.250044  1
  O  O645  1  0.307404  0.987454  0.250034  1
  O  O646  1  0.298914  0.999995  0.000038  1
  O  O647  1  0.701014  0.999997  0.000040  1
  Si  Si648  1  0.000329  0.751192  0.326348  1
  O  O649  1  0.904899  0.737085  0.162809  1
  O  O650  1  0.094566  0.736997  0.162503  1
  O  O651  1  0.095287  0.737094  0.337223  1
  O  O652  1  0.905619  0.737004  0.337520  1
  O  O653  1  0.774375  0.737628  0.250471  1
  O  O654  1  0.225807  0.737630  0.249553  1
  O  O655  1  0.909305  0.802771  0.051141  1
  O  O656  1  0.090730  0.802717  0.050729  1
  O  O657  1  0.090854  0.802779  0.448886  1
  O  O658  1  0.909423  0.802727  0.449283  1
  O  O659  1  0.785287  0.835723  0.055254  1
  O  O660  1  0.214611  0.835697  0.055146  1
  O  O661  1  0.214823  0.835736  0.444820  1
  O  O662  1  0.785474  0.835700  0.444949  1
  O  O663  1  0.905449  0.868925  0.060299  1
  O  O664  1  0.094530  0.868913  0.060290  1
  O  O665  1  0.094589  0.868930  0.439803  1
  O  O666  1  0.905507  0.868921  0.439808  1
  O  O667  1  0.907983  0.935032  0.153191  1
  O  O668  1  0.092048  0.935029  0.153173  1
  O  O669  1  0.092043  0.935036  0.346889  1
  O  O670  1  0.907977  0.935033  0.346917  1
  O  O671  1  0.000094  0.758466  0.250009  1
  O  O672  1  0.999974  0.773033  0.125071  1
  O  O673  1  0.000195  0.773042  0.374945  1
  O  O674  1  0.000011  0.898619  0.128185  1
  O  O675  1  0.000023  0.898625  0.371916  1
  O  O676  1  0.000008  0.916024  0.250047  1
  Si  Si677  1  0.690029  0.689107  0.127863  1
  Si  Si678  1  0.310148  0.689062  0.127651  1
  Si  Si679  1  0.310154  0.689115  0.372166  1
  Si  Si680  1  0.690053  0.689068  0.372397  1
  Si  Si681  1  0.707017  0.763846  0.060273  1
  Si  Si682  1  0.293487  0.763864  0.059860  1
  Si  Si683  1  0.293154  0.763858  0.439749  1
  Si  Si684  1  0.706689  0.763868  0.440167  1
  Si  Si685  1  0.808700  0.810378  0.027919  1
  Si  Si686  1  0.191365  0.810354  0.027711  1
  Si  Si687  1  0.191451  0.810385  0.472128  1
  Si  Si688  1  0.808801  0.810358  0.472354  1
  Si  Si689  1  0.797360  0.863237  0.061870  1
  Si  Si690  1  0.202605  0.863209  0.061836  1
  Si  Si691  1  0.202683  0.863248  0.438222  1
  Si  Si692  1  0.797436  0.863213  0.438260  1
  Si  Si693  1  0.803224  0.938270  0.130634  1
  Si  Si694  1  0.196811  0.938261  0.130617  1
  Si  Si695  1  0.196801  0.938276  0.369443  1
  Si  Si696  1  0.803214  0.938264  0.369475  1
  Si  Si697  1  0.701950  0.892118  0.173499  1
  Si  Si698  1  0.298045  0.892097  0.173443  1
  Si  Si699  1  0.298093  0.892126  0.326588  1
  Si  Si700  1  0.701999  0.892098  0.326646  1
  Si  Si701  1  0.687413  0.981787  0.173493  1
  Si  Si702  1  0.312583  0.981786  0.173487  1
  Si  Si703  1  0.312593  0.981796  0.326587  1
  Si  Si704  1  0.687422  0.981785  0.326594  1
  Si  Si705  1  0.795209  0.734012  0.173482  1
  Si  Si706  1  0.204336  0.733915  0.172691  1
  Si  Si707  1  0.204976  0.734021  0.326545  1
  Si  Si708  1  0.795847  0.733922  0.327336  1
  Si  Si709  1  0.499957  0.747842  0.438536  1
  Si  Si710  1  0.500211  0.747829  0.061479  1
  Si  Si711  1  0.000167  0.787421  0.441933  1
  Si  Si712  1  0.999991  0.787411  0.058082  1
  Si  Si713  1  0.000004  0.883096  0.063473  1
  Si  Si714  1  0.000033  0.883103  0.436629  1
  Si  Si715  1  0.000014  0.921375  0.172919  1
  Si  Si716  1  0.000009  0.921378  0.327173  1
  Si  Si717  1  0.500042  0.710288  0.172873  1
  Si  Si718  1  0.500155  0.710292  0.327167  1
  Si  Si719  1  0.499999  0.903964  0.128842  1
  Si  Si720  1  0.500047  0.903967  0.371248  1
  Si  Si721  1  0.499997  0.958565  0.129024  1
  O  O722  1  0.500672  0.730869  0.499857  1
  O  O723  1  0.499510  0.730858  0.000157  1
  O  O724  1  0.248165  0.749863  0.498925  1
  O  O725  1  0.250870  0.875194  0.499570  1
  O  O726  1  0.749253  0.875165  0.499599  1
  O  O727  1  0.749171  0.875183  0.000520  1
  O  O728  1  0.250778  0.875162  0.000496  1
  O  O729  1  0.092499  0.933449  0.544617  1
  O  O730  1  0.907540  0.933452  0.544601  1
  O  O731  1  0.907531  0.933443  0.955466  1
  O  O732  1  0.092490  0.933445  0.955505  1
  O  O733  1  0.999981  0.905681  0.624019  1
  O  O734  1  0.000085  0.905673  0.876084  1
  O  O735  1  0.907226  0.869452  0.661730  1
  O  O736  1  0.092801  0.869468  0.661706  1
  O  O737  1  0.092851  0.869444  0.838360  1
  O  O738  1  0.907272  0.869464  0.838383  1
  O  O739  1  0.000041  0.891290  0.750051  1
  O  O740  1  0.000095  0.784263  0.750024  1
  O  O741  1  0.090230  0.804120  0.654227  1
  O  O742  1  0.910173  0.804184  0.654279  1
  O  O743  1  0.909929  0.804117  0.845823  1
  O  O744  1  0.089988  0.804175  0.845813  1
  O  O745  1  0.999814  0.767356  0.626859  1
  O  O746  1  0.000327  0.767348  0.873167  1
  Si  Si747  1  0.499849  0.748808  0.826345  1
  Si  Si748  1  0.500323  0.748813  0.673671  1
  O  O749  1  0.096648  0.738600  0.942408  1
  O  O750  1  0.904056  0.738411  0.941450  1
  O  O751  1  0.903518  0.738612  0.557593  1
  O  O752  1  0.096111  0.738424  0.558566  1
  O  O753  1  0.239111  0.961293  0.551190  1
  O  O754  1  0.760866  0.961277  0.551228  1
  O  O755  1  0.760893  0.961284  0.948880  1
  O  O756  1  0.239144  0.961272  0.948855  1
  O  O757  1  0.254762  0.915526  0.550626  1
  O  O758  1  0.745349  0.915500  0.550661  1
  O  O759  1  0.745286  0.915516  0.949461  1
  O  O760  1  0.254692  0.915494  0.949432  1
  O  O761  1  0.213240  0.836264  0.654474  1
  O  O762  1  0.786790  0.836225  0.654636  1
  O  O763  1  0.786875  0.836256  0.845580  1
  O  O764  1  0.213332  0.836218  0.845414  1
  O  O765  1  0.260312  0.878905  0.625434  1
  O  O766  1  0.739723  0.878867  0.625448  1
  O  O767  1  0.739747  0.878894  0.874661  1
  O  O768  1  0.260345  0.878861  0.874646  1
  O  O769  1  0.220078  0.866551  0.750022  1
  O  O770  1  0.779999  0.866551  0.750063  1
  O  O771  1  0.260524  0.791366  0.651660  1
  O  O772  1  0.740162  0.791259  0.652214  1
  O  O773  1  0.739643  0.791358  0.848385  1
  O  O774  1  0.260004  0.791253  0.847828  1
  O  O775  1  0.187501  0.811332  0.549919  1
  O  O776  1  0.812439  0.811287  0.550143  1
  O  O777  1  0.812637  0.811331  0.950130  1
  O  O778  1  0.187805  0.811290  0.949920  1
  O  O779  1  0.240542  0.709854  0.550923  1
  O  O780  1  0.759816  0.709834  0.550983  1
  O  O781  1  0.759632  0.709843  0.949099  1
  O  O782  1  0.240376  0.709837  0.949097  1
  O  O783  1  0.251944  0.750162  0.998908  1
  Si  Si784  1  0.499990  0.903172  0.974390  1
  O  O785  1  0.748149  0.750133  0.501088  1
  O  O786  1  0.246473  0.747617  0.625521  1
  O  O787  1  0.754828  0.747398  0.626811  1
  O  O788  1  0.753692  0.747606  0.874497  1
  O  O789  1  0.245345  0.747386  0.873198  1
  O  O790  1  0.697925  0.996340  0.625901  1
  O  O791  1  0.302001  0.996349  0.625887  1
  O  O792  1  0.301989  0.996343  0.874187  1
  O  O793  1  0.697921  0.996337  0.874183  1
  O  O794  1  0.410529  0.970713  0.553074  1
  O  O795  1  0.589459  0.970714  0.553061  1
  O  O796  1  0.589465  0.970700  0.947012  1
  O  O797  1  0.410537  0.970715  0.947006  1
  O  O798  1  0.405136  0.891930  0.551093  1
  O  O799  1  0.594969  0.891919  0.551079  1
  O  O800  1  0.594912  0.891924  0.948992  1
  O  O801  1  0.405077  0.891911  0.949029  1
  Si  Si802  1  0.500058  0.903178  0.525702  1
  Si  Si803  1  0.499984  0.957999  0.974585  1
  Si  Si804  1  0.499994  0.958005  0.525494  1
  Si  Si805  1  0.000080  0.884181  0.826474  1
  O  O806  1  0.405611  0.763001  0.662501  1
  O  O807  1  0.595279  0.762913  0.662807  1
  O  O808  1  0.594560  0.762996  0.837517  1
  O  O809  1  0.404891  0.762906  0.837221  1
  O  O810  1  0.274371  0.762371  0.749553  1
  O  O811  1  0.725806  0.762370  0.750470  1
  O  O812  1  0.409434  0.697281  0.550735  1
  O  O813  1  0.590864  0.697225  0.551133  1
  O  O814  1  0.590746  0.697270  0.949279  1
  O  O815  1  0.409313  0.697220  0.948868  1
  O  O816  1  0.500047  0.930608  0.538528  1
  O  O817  1  0.499952  0.930601  0.961557  1
  O  O818  1  0.500083  0.741533  0.750006  1
  O  O819  1  0.500206  0.726963  0.625071  1
  O  O820  1  0.499986  0.726956  0.874937  1
  Si  Si821  1  0.197859  0.937361  0.524674  1
  Si  Si822  1  0.802152  0.937350  0.524701  1
  Si  Si823  1  0.802167  0.937355  0.975404  1
  Si  Si824  1  0.197880  0.937344  0.975392  1
  Si  Si825  1  0.190031  0.810936  0.627645  1
  Si  Si826  1  0.810146  0.810892  0.627873  1
  Si  Si827  1  0.810121  0.810930  0.872404  1
  Si  Si828  1  0.190027  0.810884  0.872190  1
  Si  Si829  1  0.206683  0.736138  0.559857  1
  Si  Si830  1  0.793155  0.736148  0.560275  1
  Si  Si831  1  0.793484  0.736127  0.940161  1
  Si  Si832  1  0.207018  0.736145  0.939750  1
  Si  Si833  1  0.310778  0.982127  0.558955  1
  Si  Si834  1  0.689219  0.982118  0.558966  1
  Si  Si835  1  0.689206  0.982115  0.941119  1
  Si  Si836  1  0.310767  0.982117  0.941111  1
  Si  Si837  1  0.308806  0.689649  0.527684  1
  Si  Si838  1  0.691470  0.689618  0.527914  1
  Si  Si839  1  0.691370  0.689638  0.972343  1
  Si  Si840  1  0.308721  0.689618  0.972136  1
  Si  Si841  1  0.294875  0.889889  0.557730  1
  Si  Si842  1  0.705223  0.889863  0.557741  1
  Si  Si843  1  0.705174  0.889879  0.942361  1
  Si  Si844  1  0.294824  0.889858  0.942357  1
  Si  Si845  1  0.295841  0.766083  0.672690  1
  Si  Si846  1  0.704969  0.765984  0.673481  1
  Si  Si847  1  0.704332  0.766077  0.827335  1
  Si  Si848  1  0.295202  0.765980  0.826545  1
  Si  Si849  1  0.199650  0.862984  0.673294  1
  Si  Si850  1  0.800389  0.862958  0.673340  1
  Si  Si851  1  0.800426  0.862980  0.826790  1
  Si  Si852  1  0.199692  0.862953  0.826744  1
  Si  Si853  1  0.000015  0.918846  0.554958  1
  Si  Si854  1  0.000017  0.918839  0.945142  1
  Si  Si855  1  0.000209  0.752156  0.938529  1
  Si  Si856  1  0.999954  0.752168  0.561490  1
  Si  Si857  1  0.500006  0.712576  0.941923  1
  Si  Si858  1  0.500181  0.712584  0.558084  1
  Si  Si859  1  0.000138  0.789712  0.672877  1
  Si  Si860  1  0.000025  0.789710  0.827173  1
  Si  Si861  1  0.999999  0.884187  0.673624  1
  O  O862  1  0.999500  0.769127  0.999855  1
  O  O863  1  0.000658  0.769138  0.500165  1
  O  O864  1  0.701054  0.999999  0.500044  1
