# generated using pymatgen
data_SiO2
_symmetry_space_group_name_H-M   'P 1'
_cell_length_a   30.67508821
_cell_length_b   30.67096610
_cell_length_c   30.68027557
_cell_angle_alpha   90.00000000
_cell_angle_beta   90.00000000
_cell_angle_gamma   90.00000000
_symmetry_Int_Tables_number   1
_chemical_formula_structural   SiO2
_chemical_formula_sum   'Si384 O768'
_cell_volume   28865.0645075
_cell_formula_units_Z   384
loop_
 _symmetry_equiv_pos_site_id
 _symmetry_equiv_pos_as_xyz
  1  'x, y, z'
loop_
 _atom_site_type_symbol
 _atom_site_label
 _atom_site_symmetry_multiplicity
 _atom_site_fract_x
 _atom_site_fract_y
 _atom_site_fract_z
 _atom_site_occupancy
  O  O1  1  0.069887  0.150455  0.230778  1
  O  O2  1  0.230726  0.069893  0.150410  1
  O  O3  1  0.150394  0.230790  0.069888  1
  O  O4  1  0.569923  0.150414  0.269273  1
  O  O5  1  0.930083  0.150411  0.230783  1
  O  O6  1  0.769262  0.069892  0.150427  1
  O  O7  1  0.849606  0.230791  0.069907  1
  O  O8  1  0.430110  0.150410  0.269229  1
  O  O9  1  0.150368  0.069903  0.230759  1
  O  O10  1  0.069898  0.230819  0.150444  1
  O  O11  1  0.230719  0.150414  0.069895  1
  O  O12  1  0.650403  0.069871  0.269247  1
  O  O13  1  0.650401  0.430115  0.230798  1
  O  O14  1  0.569898  0.269203  0.150427  1
  O  O15  1  0.730761  0.349586  0.069951  1
  O  O16  1  0.150453  0.430124  0.269287  1
  O  O17  1  0.930108  0.349600  0.269269  1
  O  O18  1  0.430140  0.349591  0.230767  1
  O  O19  1  0.269282  0.430089  0.150454  1
  O  O20  1  0.349585  0.269202  0.069908  1
  O  O21  1  0.069916  0.349638  0.269272  1
  O  O22  1  0.569917  0.349575  0.230743  1
  O  O23  1  0.730772  0.430110  0.150449  1
  O  O24  1  0.650434  0.269217  0.069894  1
  O  O25  1  0.849602  0.430135  0.269266  1
  O  O26  1  0.349640  0.430153  0.230798  1
  O  O27  1  0.430097  0.269243  0.150437  1
  O  O28  1  0.269255  0.349589  0.069943  1
  O  O29  1  0.349581  0.069896  0.269234  1
  O  O30  1  0.849605  0.069845  0.230802  1
  O  O31  1  0.930096  0.230775  0.150470  1
  O  O32  1  0.769295  0.150397  0.069915  1
  O  O33  1  0.211951  0.211991  0.119617  1
  O  O34  1  0.119629  0.212026  0.212004  1
  O  O35  1  0.211953  0.119616  0.211978  1
  O  O36  1  0.619642  0.211991  0.288055  1
  O  O37  1  0.711988  0.119567  0.288045  1
  O  O38  1  0.788047  0.211976  0.119636  1
  O  O39  1  0.880341  0.211971  0.212020  1
  O  O40  1  0.788031  0.119579  0.212023  1
  O  O41  1  0.380373  0.211974  0.288026  1
  O  O42  1  0.288002  0.119619  0.288004  1
  O  O43  1  0.711980  0.287990  0.119653  1
  O  O44  1  0.711985  0.380399  0.212026  1
  O  O45  1  0.619652  0.287998  0.211966  1
  O  O46  1  0.212039  0.380415  0.288083  1
  O  O47  1  0.119609  0.288049  0.288054  1
  O  O48  1  0.880367  0.288022  0.288058  1
  O  O49  1  0.788019  0.380418  0.288063  1
  O  O50  1  0.288020  0.287997  0.119642  1
  O  O51  1  0.380369  0.288047  0.212003  1
  O  O52  1  0.288079  0.380398  0.212044  1
  O  O53  1  0.402825  0.208580  0.208582  1
  O  O54  1  0.208620  0.402831  0.208624  1
  O  O55  1  0.708601  0.208539  0.097166  1
  O  O56  1  0.902805  0.208552  0.291465  1
  O  O57  1  0.708556  0.402860  0.291474  1
  O  O58  1  0.597196  0.208545  0.208592  1
  O  O59  1  0.791441  0.402845  0.208604  1
  O  O60  1  0.291414  0.208547  0.097179  1
  O  O61  1  0.097160  0.208592  0.291455  1
  O  O62  1  0.291490  0.402892  0.291491  1
  O  O63  1  0.708574  0.097153  0.208579  1
  O  O64  1  0.902814  0.291437  0.208615  1
  O  O65  1  0.208568  0.291455  0.097190  1
  O  O66  1  0.208544  0.097157  0.291420  1
  O  O67  1  0.402853  0.291432  0.291445  1
  O  O68  1  0.791434  0.291441  0.097206  1
  O  O69  1  0.597164  0.291434  0.291420  1
  O  O70  1  0.791435  0.097110  0.291477  1
  O  O71  1  0.097196  0.291491  0.208593  1
  O  O72  1  0.291418  0.097166  0.208556  1
  O  O73  1  0.148361  0.148390  0.258295  1
  O  O74  1  0.258247  0.148370  0.148372  1
  O  O75  1  0.148369  0.258324  0.148376  1
  O  O76  1  0.648404  0.148367  0.241757  1
  O  O77  1  0.851619  0.148328  0.258334  1
  O  O78  1  0.741752  0.148366  0.148399  1
  O  O79  1  0.851628  0.258298  0.148402  1
  O  O80  1  0.351621  0.148369  0.241705  1
  O  O81  1  0.648384  0.351622  0.258298  1
  O  O82  1  0.648373  0.241654  0.148355  1
  O  O83  1  0.758275  0.351615  0.148431  1
  O  O84  1  0.148421  0.351645  0.241785  1
  O  O85  1  0.851622  0.351643  0.241766  1
  O  O86  1  0.351688  0.351681  0.258352  1
  O  O87  1  0.241761  0.351609  0.148440  1
  O  O88  1  0.351617  0.241704  0.148394  1
  O  O89  1  0.150033  0.150092  0.055577  1
  O  O90  1  0.055561  0.150130  0.150099  1
  O  O91  1  0.150030  0.055582  0.150075  1
  O  O92  1  0.849982  0.150098  0.055588  1
  O  O93  1  0.944421  0.150091  0.150093  1
  O  O94  1  0.849950  0.055551  0.150115  1
  O  O95  1  0.650080  0.349919  0.055618  1
  O  O96  1  0.650086  0.444444  0.150114  1
  O  O97  1  0.555582  0.349904  0.150071  1
  O  O98  1  0.349939  0.349888  0.055594  1
  O  O99  1  0.444439  0.349928  0.150075  1
  O  O100  1  0.349964  0.444439  0.150105  1
  O  O101  1  0.079097  0.079168  0.188698  1
  O  O102  1  0.188647  0.079135  0.079132  1
  O  O103  1  0.079109  0.188747  0.079149  1
  O  O104  1  0.579130  0.079128  0.311331  1
  O  O105  1  0.920881  0.079124  0.188723  1
  O  O106  1  0.811380  0.079138  0.079166  1
  O  O107  1  0.920898  0.188754  0.079150  1
  O  O108  1  0.420872  0.079133  0.311296  1
  O  O109  1  0.579142  0.420868  0.188694  1
  O  O110  1  0.579136  0.311267  0.079150  1
  O  O111  1  0.688697  0.420869  0.079176  1
  O  O112  1  0.079151  0.420904  0.311345  1
  O  O113  1  0.920885  0.420893  0.311325  1
  O  O114  1  0.420907  0.420884  0.188711  1
  O  O115  1  0.311349  0.420849  0.079170  1
  O  O116  1  0.420875  0.311269  0.079142  1
  O  O117  1  0.199504  0.000007  0.113032  1
  O  O118  1  0.999988  0.113060  0.199572  1
  Si  Si119  1  0.807502  0.121510  0.050263  1
  O  O120  1  0.500015  0.113026  0.300452  1
  O  O121  1  0.887009  0.199579  0.000009  1
  O  O122  1  0.112986  0.199553  0.000003  1
  O  O123  1  0.199508  0.113022  0.000007  1
  O  O124  1  0.800524  0.113001  0.000030  1
  O  O125  1  0.999997  0.199605  0.113068  1
  Si  Si126  1  0.949762  0.192602  0.121548  1
  O  O127  1  0.500001  0.300426  0.113036  1
  O  O128  1  0.000010  0.387009  0.300478  1
  O  O129  1  0.500023  0.386976  0.199539  1
  O  O130  1  0.699560  0.386980  0.000052  1
  Si  Si131  1  0.878515  0.050212  0.192603  1
  O  O132  1  0.613020  0.300479  0.000028  1
  Si  Si133  1  0.378483  0.050252  0.307433  1
  Si  Si134  1  0.108143  0.179285  0.250113  1
  Si  Si135  1  0.250071  0.108138  0.179248  1
  Si  Si136  1  0.179231  0.250121  0.108141  1
  Si  Si137  1  0.608177  0.179247  0.249942  1
  Si  Si138  1  0.750095  0.108096  0.320788  1
  Si  Si139  1  0.891826  0.179230  0.250132  1
  Si  Si140  1  0.749921  0.108131  0.179274  1
  Si  Si141  1  0.820767  0.250108  0.108163  1
  Si  Si142  1  0.391851  0.179245  0.249905  1
  Si  Si143  1  0.249882  0.108138  0.320734  1
  Si  Si144  1  0.179218  0.108145  0.250094  1
  Si  Si145  1  0.108156  0.250148  0.179274  1
  Si  Si146  1  0.250060  0.179246  0.108145  1
  Si  Si147  1  0.679259  0.108114  0.249922  1
  Si  Si148  1  0.608134  0.250118  0.320770  1
  Si  Si149  1  0.679246  0.391871  0.250136  1
  Si  Si150  1  0.608161  0.249867  0.179248  1
  Si  Si151  1  0.750089  0.320743  0.108198  1
  Si  Si152  1  0.179302  0.391873  0.249965  1
  Si  Si153  1  0.108122  0.249930  0.320779  1
  Si  Si154  1  0.891849  0.320762  0.249948  1
  Si  Si155  1  0.749900  0.391900  0.320791  1
  Si  Si156  1  0.391884  0.320771  0.250121  1
  Si  Si157  1  0.249957  0.391845  0.179308  1
  Si  Si158  1  0.320746  0.249876  0.108159  1
  Si  Si159  1  0.108165  0.320795  0.249941  1
  Si  Si160  1  0.250155  0.391909  0.320811  1
  Si  Si161  1  0.608165  0.320737  0.250079  1
  Si  Si162  1  0.750103  0.391862  0.179292  1
  Si  Si163  1  0.679262  0.249865  0.108142  1
  Si  Si164  1  0.820755  0.391882  0.249946  1
  Si  Si165  1  0.891839  0.249894  0.320781  1
  Si  Si166  1  0.320808  0.391907  0.250155  1
  Si  Si167  1  0.391840  0.249921  0.179272  1
  Si  Si168  1  0.249916  0.320752  0.108189  1
  Si  Si169  1  0.320739  0.108141  0.249891  1
  Si  Si170  1  0.391852  0.250095  0.320756  1
  Si  Si171  1  0.820755  0.108087  0.250142  1
  Si  Si172  1  0.891836  0.250098  0.179300  1
  Si  Si173  1  0.749941  0.179229  0.108159  1
  Si  Si174  1  0.050222  0.121559  0.192586  1
  Si  Si175  1  0.192524  0.050247  0.121512  1
  Si  Si176  1  0.121480  0.192596  0.050242  1
  Si  Si177  1  0.550250  0.121518  0.307460  1
  Si  Si178  1  0.949749  0.121523  0.192586  1
  Si  Si179  1  0.807466  0.050242  0.121536  1
  Si  Si180  1  0.878524  0.192608  0.050248  1
  Si  Si181  1  0.449774  0.121507  0.307417  1
  Si  Si182  1  0.121462  0.050256  0.192566  1
  Si  Si183  1  0.050237  0.192629  0.121540  1
  Si  Si184  1  0.192520  0.121516  0.050241  1
  Si  Si185  1  0.621498  0.050222  0.307442  1
  Si  Si186  1  0.621511  0.449771  0.192597  1
  Si  Si187  1  0.550241  0.307397  0.121524  1
  Si  Si188  1  0.692572  0.378488  0.050286  1
  Si  Si189  1  0.121541  0.449783  0.307470  1
  Si  Si190  1  0.949772  0.378508  0.307453  1
  Si  Si191  1  0.449784  0.378492  0.192568  1
  Si  Si192  1  0.307467  0.449747  0.121544  1
  Si  Si193  1  0.378496  0.307390  0.050251  1
  Si  Si194  1  0.050249  0.378529  0.307466  1
  Si  Si195  1  0.550258  0.378480  0.192556  1
  Si  Si196  1  0.692579  0.449765  0.121548  1
  Si  Si197  1  0.621521  0.307420  0.050265  1
  Si  Si198  1  0.878511  0.449792  0.307451  1
  Si  Si199  1  0.378535  0.449787  0.192590  1
  Si  Si200  1  0.449764  0.307421  0.121523  1
  Si  Si201  1  0.307457  0.378471  0.050275  1
  O  O202  1  0.386997  0.300409  0.000016  1
  O  O203  1  0.300482  0.386957  0.000038  1
  O  O204  1  0.800467  0.000007  0.113031  1
  O  O205  1  0.386978  0.000011  0.300476  1
  O  O206  1  0.300476  0.499985  0.113047  1
  O  O207  1  0.112956  0.000019  0.199546  1
  O  O208  1  0.730803  0.069808  0.650386  1
  O  O209  1  0.650472  0.230718  0.569923  1
  O  O210  1  0.730750  0.069852  0.349628  1
  O  O211  1  0.650408  0.230783  0.430127  1
  O  O212  1  0.269285  0.069897  0.650429  1
  O  O213  1  0.349608  0.230734  0.569862  1
  O  O214  1  0.269219  0.069882  0.349565  1
  O  O215  1  0.349570  0.230733  0.430087  1
  O  O216  1  0.569922  0.230765  0.650423  1
  O  O217  1  0.730797  0.150360  0.569876  1
  O  O218  1  0.569876  0.230780  0.349596  1
  O  O219  1  0.730721  0.150411  0.430094  1
  O  O220  1  0.069939  0.269244  0.650434  1
  O  O221  1  0.230792  0.349599  0.569911  1
  O  O222  1  0.069874  0.269268  0.349616  1
  O  O223  1  0.230772  0.349603  0.430148  1
  O  O224  1  0.769249  0.430150  0.349620  1
  O  O225  1  0.849561  0.269236  0.430121  1
  O  O226  1  0.769270  0.430041  0.650437  1
  O  O227  1  0.849636  0.269190  0.569885  1
  O  O228  1  0.230800  0.430155  0.349642  1
  O  O229  1  0.150417  0.269275  0.430114  1
  O  O230  1  0.230799  0.430093  0.650434  1
  O  O231  1  0.150443  0.269236  0.569893  1
  O  O232  1  0.930098  0.269234  0.349604  1
  O  O233  1  0.769245  0.349616  0.430125  1
  O  O234  1  0.930153  0.269211  0.650404  1
  O  O235  1  0.769269  0.349535  0.569906  1
  O  O236  1  0.430096  0.230755  0.349596  1
  O  O237  1  0.269192  0.150413  0.430092  1
  O  O238  1  0.430160  0.230759  0.650337  1
  O  O239  1  0.269250  0.150391  0.569890  1
  O  O240  1  0.712038  0.211907  0.619645  1
  O  O241  1  0.711952  0.211997  0.380373  1
  O  O242  1  0.288059  0.211972  0.619608  1
  O  O243  1  0.287994  0.211977  0.380357  1
  O  O244  1  0.212022  0.288015  0.619618  1
  O  O245  1  0.211988  0.288062  0.380387  1
  O  O246  1  0.788001  0.288034  0.380395  1
  O  O247  1  0.788072  0.287961  0.619623  1
  O  O248  1  0.208548  0.208588  0.402818  1
  O  O249  1  0.208599  0.208561  0.597162  1
  O  O250  1  0.791395  0.208567  0.402837  1
  O  O251  1  0.791485  0.208504  0.597154  1
  O  O252  1  0.708559  0.291461  0.402860  1
  O  O253  1  0.708618  0.291371  0.597200  1
  O  O254  1  0.291470  0.291429  0.597150  1
  O  O255  1  0.291433  0.291429  0.402855  1
  O  O256  1  0.758357  0.148279  0.648338  1
  O  O257  1  0.648423  0.258239  0.648406  1
  O  O258  1  0.758264  0.148353  0.351638  1
  O  O259  1  0.648346  0.258338  0.351662  1
  O  O260  1  0.241745  0.148370  0.648372  1
  O  O261  1  0.351687  0.258294  0.648326  1
  O  O262  1  0.241680  0.148367  0.351611  1
  O  O263  1  0.351616  0.258290  0.351623  1
  O  O264  1  0.148416  0.241715  0.648374  1
  O  O265  1  0.258334  0.351615  0.648385  1
  O  O266  1  0.148359  0.241752  0.351645  1
  O  O267  1  0.258344  0.351680  0.351689  1
  O  O268  1  0.741706  0.351669  0.351664  1
  O  O269  1  0.851606  0.241708  0.351652  1
  O  O270  1  0.741759  0.351562  0.648403  1
  O  O271  1  0.851681  0.241663  0.648358  1
  O  O272  1  0.650104  0.150035  0.555575  1
  O  O273  1  0.555616  0.150081  0.650068  1
  O  O274  1  0.650115  0.055516  0.650040  1
  O  O275  1  0.650044  0.150083  0.444432  1
  O  O276  1  0.555572  0.150085  0.349953  1
  O  O277  1  0.650060  0.055539  0.349934  1
  O  O278  1  0.349928  0.150037  0.555543  1
  O  O279  1  0.444477  0.150064  0.650030  1
  O  O280  1  0.349968  0.055580  0.650075  1
  O  O281  1  0.349881  0.150048  0.444408  1
  O  O282  1  0.444440  0.150068  0.349909  1
  O  O283  1  0.349913  0.055584  0.349922  1
  O  O284  1  0.150099  0.349925  0.555594  1
  O  O285  1  0.150112  0.444431  0.650132  1
  O  O286  1  0.055616  0.349931  0.650093  1
  O  O287  1  0.150078  0.349959  0.444454  1
  O  O288  1  0.150101  0.444456  0.349966  1
  O  O289  1  0.055565  0.349960  0.349957  1
  O  O290  1  0.849930  0.349932  0.444437  1
  O  O291  1  0.944428  0.349937  0.349940  1
  O  O292  1  0.849948  0.444467  0.349945  1
  O  O293  1  0.849954  0.349881  0.555572  1
  O  O294  1  0.944474  0.349905  0.650078  1
  O  O295  1  0.849955  0.444372  0.650090  1
  O  O296  1  0.688738  0.079068  0.579102  1
  O  O297  1  0.579176  0.188692  0.579139  1
  O  O298  1  0.688649  0.079119  0.420875  1
  O  O299  1  0.579112  0.188738  0.420894  1
  O  O300  1  0.311313  0.079104  0.579122  1
  O  O301  1  0.420892  0.188657  0.579080  1
  O  O302  1  0.311253  0.079123  0.420857  1
  O  O303  1  0.420845  0.188650  0.420848  1
  O  O304  1  0.079161  0.311301  0.579148  1
  O  O305  1  0.188705  0.420869  0.579172  1
  O  O306  1  0.079124  0.311335  0.420894  1
  O  O307  1  0.188718  0.420898  0.420911  1
  O  O308  1  0.811328  0.420900  0.420891  1
  O  O309  1  0.920854  0.311301  0.420869  1
  O  O310  1  0.811334  0.420809  0.579152  1
  O  O311  1  0.920911  0.311281  0.579126  1
  O  O312  1  0.613044  0.199553  0.500022  1
  O  O313  1  0.300442  0.000002  0.386996  1
  Si  Si314  1  0.307428  0.121478  0.550221  1
  O  O315  1  0.386970  0.199505  0.499969  1
  Si  Si316  1  0.449800  0.192548  0.621446  1
  O  O317  1  0.699539  0.112999  0.499984  1
  O  O318  1  0.500040  0.199531  0.612970  1
  O  O319  1  0.499987  0.199549  0.386993  1
  O  O320  1  0.199555  0.387003  0.500034  1
  O  O321  1  0.000043  0.300446  0.613029  1
  O  O322  1  0.999989  0.300476  0.387005  1
  O  O323  1  0.887001  0.300435  0.499995  1
  O  O324  1  0.113030  0.300470  0.500012  1
  O  O325  1  0.800476  0.386973  0.500016  1
  O  O326  1  0.300417  0.112997  0.499988  1
  Si  Si327  1  0.679304  0.250032  0.608184  1
  Si  Si328  1  0.679234  0.250126  0.391875  1
  Si  Si329  1  0.320792  0.250088  0.608116  1
  Si  Si330  1  0.320736  0.250087  0.391847  1
  Si  Si331  1  0.750152  0.179177  0.608131  1
  Si  Si332  1  0.750060  0.179248  0.391848  1
  Si  Si333  1  0.250139  0.320752  0.608146  1
  Si  Si334  1  0.250115  0.320780  0.391892  1
  Si  Si335  1  0.820722  0.249903  0.391872  1
  Si  Si336  1  0.820803  0.249845  0.608131  1
  Si  Si337  1  0.179248  0.249944  0.391860  1
  Si  Si338  1  0.179284  0.249901  0.608139  1
  Si  Si339  1  0.749896  0.320781  0.391883  1
  Si  Si340  1  0.749950  0.320697  0.608165  1
  Si  Si341  1  0.249869  0.179249  0.391835  1
  Si  Si342  1  0.249934  0.179240  0.608139  1
  Si  Si343  1  0.692607  0.050168  0.621476  1
  Si  Si344  1  0.621555  0.192544  0.550250  1
  Si  Si345  1  0.692540  0.050206  0.378515  1
  Si  Si346  1  0.621499  0.192591  0.449778  1
  Si  Si347  1  0.307468  0.050236  0.621519  1
  Si  Si348  1  0.378499  0.192529  0.550207  1
  Si  Si349  1  0.307411  0.050237  0.378475  1
  Si  Si350  1  0.378465  0.192530  0.449736  1
  Si  Si351  1  0.550275  0.192575  0.621505  1
  Si  Si352  1  0.692594  0.121464  0.550227  1
  Si  Si353  1  0.550229  0.192588  0.378508  1
  Si  Si354  1  0.692533  0.121506  0.449755  1
  Si  Si355  1  0.050278  0.307434  0.621530  1
  Si  Si356  1  0.192588  0.378498  0.550268  1
  Si  Si357  1  0.050227  0.307465  0.378520  1
  Si  Si358  1  0.192579  0.378513  0.449798  1
  Si  Si359  1  0.807456  0.449795  0.378512  1
  Si  Si360  1  0.878480  0.307426  0.449766  1
  Si  Si361  1  0.807458  0.449696  0.621529  1
  Si  Si362  1  0.878531  0.307395  0.550236  1
  Si  Si363  1  0.192591  0.449792  0.378536  1
  Si  Si364  1  0.121510  0.307463  0.449777  1
  Si  Si365  1  0.192595  0.449755  0.621553  1
  Si  Si366  1  0.121534  0.307432  0.550248  1
  Si  Si367  1  0.949752  0.307437  0.378498  1
  Si  Si368  1  0.807447  0.378513  0.449775  1
  Si  Si369  1  0.949802  0.307414  0.621507  1
  Si  Si370  1  0.807457  0.378442  0.550245  1
  Si  Si371  1  0.449754  0.192554  0.378487  1
  Si  Si372  1  0.307377  0.121499  0.449751  1
  O  O373  1  0.800464  0.499930  0.613018  1
  O  O374  1  0.199579  0.499995  0.613070  1
  O  O375  1  0.569940  0.150382  0.730761  1
  O  O376  1  0.069922  0.150416  0.769230  1
  O  O377  1  0.230810  0.069898  0.849592  1
  O  O378  1  0.150411  0.230767  0.930127  1
  O  O379  1  0.430178  0.150434  0.730722  1
  O  O380  1  0.930116  0.150378  0.769237  1
  O  O381  1  0.769251  0.069898  0.849604  1
  O  O382  1  0.849606  0.230757  0.930105  1
  O  O383  1  0.650445  0.069861  0.730732  1
  O  O384  1  0.150447  0.069895  0.769247  1
  O  O385  1  0.069910  0.230768  0.849581  1
  O  O386  1  0.230763  0.150419  0.930129  1
  O  O387  1  0.150474  0.430109  0.730815  1
  O  O388  1  0.650452  0.430077  0.769286  1
  O  O389  1  0.569928  0.269176  0.849621  1
  O  O390  1  0.730784  0.349582  0.930164  1
  O  O391  1  0.430188  0.349577  0.769227  1
  O  O392  1  0.269325  0.430060  0.849606  1
  O  O393  1  0.349633  0.269202  0.930104  1
  O  O394  1  0.930161  0.349551  0.730765  1
  O  O395  1  0.569952  0.349543  0.769285  1
  O  O396  1  0.730823  0.430095  0.849625  1
  O  O397  1  0.650425  0.269247  0.930168  1
  O  O398  1  0.069945  0.349586  0.730780  1
  O  O399  1  0.349651  0.430111  0.769255  1
  O  O400  1  0.430110  0.269237  0.849576  1
  O  O401  1  0.269273  0.349570  0.930137  1
  O  O402  1  0.849623  0.430062  0.730780  1
  O  O403  1  0.849592  0.069872  0.769258  1
  O  O404  1  0.930094  0.230729  0.849583  1
  O  O405  1  0.769264  0.150389  0.930150  1
  O  O406  1  0.349639  0.069936  0.730764  1
  O  O407  1  0.619647  0.211960  0.712000  1
  O  O408  1  0.712021  0.119562  0.711945  1
  O  O409  1  0.211996  0.211985  0.880406  1
  O  O410  1  0.119662  0.211973  0.788032  1
  O  O411  1  0.212031  0.119620  0.788023  1
  O  O412  1  0.380457  0.212002  0.711927  1
  O  O413  1  0.288066  0.119650  0.711985  1
  O  O414  1  0.788015  0.211951  0.880407  1
  O  O415  1  0.880377  0.211941  0.788006  1
  O  O416  1  0.788023  0.119622  0.788036  1
  O  O417  1  0.212035  0.380369  0.712007  1
  O  O418  1  0.119684  0.288027  0.711993  1
  O  O419  1  0.711991  0.288008  0.880443  1
  O  O420  1  0.712031  0.380365  0.788060  1
  O  O421  1  0.619677  0.287966  0.788068  1
  O  O422  1  0.288053  0.287995  0.880410  1
  O  O423  1  0.380417  0.288039  0.787971  1
  O  O424  1  0.288119  0.380343  0.788015  1
  O  O425  1  0.880425  0.287986  0.711968  1
  O  O426  1  0.788054  0.380326  0.712016  1
  O  O427  1  0.708583  0.208551  0.902918  1
  O  O428  1  0.902867  0.208528  0.708559  1
  O  O429  1  0.708604  0.402787  0.708598  1
  O  O430  1  0.402883  0.208599  0.791395  1
  O  O431  1  0.208659  0.402810  0.791458  1
  O  O432  1  0.291466  0.208548  0.902840  1
  O  O433  1  0.097221  0.208570  0.708574  1
  O  O434  1  0.291488  0.402839  0.708570  1
  O  O435  1  0.597229  0.208511  0.791468  1
  O  O436  1  0.791491  0.402788  0.791473  1
  O  O437  1  0.208589  0.291433  0.902858  1
  O  O438  1  0.208616  0.097164  0.708578  1
  O  O439  1  0.402920  0.291444  0.708512  1
  O  O440  1  0.708588  0.097144  0.791427  1
  O  O441  1  0.902857  0.291388  0.791430  1
  O  O442  1  0.097212  0.291432  0.791442  1
  O  O443  1  0.291500  0.097213  0.791446  1
  O  O444  1  0.791447  0.291414  0.902862  1
  O  O445  1  0.597223  0.291411  0.708603  1
  O  O446  1  0.791455  0.097100  0.708578  1
  O  O447  1  0.648425  0.148342  0.758259  1
  O  O448  1  0.148417  0.148369  0.741718  1
  O  O449  1  0.258305  0.148379  0.851644  1
  O  O450  1  0.148394  0.258288  0.851651  1
  O  O451  1  0.351692  0.148416  0.758257  1
  O  O452  1  0.851638  0.148335  0.741698  1
  O  O453  1  0.741690  0.148352  0.851671  1
  O  O454  1  0.851611  0.258253  0.851614  1
  O  O455  1  0.148428  0.351632  0.758325  1
  O  O456  1  0.648429  0.351590  0.741769  1
  O  O457  1  0.648401  0.241668  0.851698  1
  O  O458  1  0.758308  0.351609  0.851677  1
  O  O459  1  0.351733  0.351661  0.741647  1
  O  O460  1  0.241792  0.351591  0.851636  1
  O  O461  1  0.351639  0.241718  0.851592  1
  O  O462  1  0.851680  0.351588  0.758298  1
  O  O463  1  0.150061  0.150082  0.944430  1
  O  O464  1  0.055571  0.150086  0.849912  1
  O  O465  1  0.150111  0.055596  0.849928  1
  O  O466  1  0.849958  0.150078  0.944452  1
  O  O467  1  0.944441  0.150047  0.849926  1
  O  O468  1  0.849944  0.055559  0.849934  1
  O  O469  1  0.650088  0.349949  0.944459  1
  O  O470  1  0.650134  0.444405  0.849976  1
  O  O471  1  0.555593  0.349862  0.849958  1
  O  O472  1  0.349954  0.349891  0.944463  1
  O  O473  1  0.444469  0.349906  0.849933  1
  O  O474  1  0.349993  0.444407  0.849962  1
  O  O475  1  0.579179  0.079120  0.688649  1
  O  O476  1  0.079158  0.079152  0.811312  1
  O  O477  1  0.188711  0.079146  0.920869  1
  O  O478  1  0.079123  0.188704  0.920864  1
  O  O479  1  0.420918  0.079139  0.688684  1
  O  O480  1  0.920889  0.079099  0.811303  1
  O  O481  1  0.811344  0.079130  0.920883  1
  O  O482  1  0.920890  0.188691  0.920876  1
  O  O483  1  0.079177  0.420871  0.688746  1
  O  O484  1  0.579190  0.420810  0.811380  1
  O  O485  1  0.579139  0.311282  0.920898  1
  O  O486  1  0.688762  0.420883  0.920924  1
  O  O487  1  0.420930  0.420854  0.811315  1
  O  O488  1  0.311358  0.420842  0.920907  1
  O  O489  1  0.420896  0.311282  0.920881  1
  O  O490  1  0.920910  0.420838  0.688713  1
  O  O491  1  0.500052  0.113009  0.699511  1
  O  O492  1  0.000017  0.113010  0.800442  1
  O  O493  1  0.113053  0.499997  0.699612  1
  O  O494  1  0.613023  0.499949  0.800508  1
  O  O495  1  0.000002  0.199554  0.886963  1
  Si  Si496  1  0.378529  0.050264  0.692573  1
  O  O497  1  0.500014  0.300393  0.886989  1
  O  O498  1  0.699596  0.499997  0.886997  1
  O  O499  1  0.500058  0.386957  0.800483  1
  O  O500  1  0.000045  0.386970  0.699561  1
  Si  Si501  1  0.807475  0.121499  0.949792  1
  Si  Si502  1  0.949766  0.192547  0.878486  1
  O  O503  1  0.886991  0.499956  0.699548  1
  O  O504  1  0.387001  0.000026  0.699583  1
  O  O505  1  0.199555  0.000020  0.887009  1
  Si  Si506  1  0.608187  0.179216  0.750109  1
  Si  Si507  1  0.750141  0.108060  0.679223  1
  Si  Si508  1  0.108187  0.179246  0.749907  1
  Si  Si509  1  0.250148  0.108153  0.820758  1
  Si  Si510  1  0.179260  0.250100  0.891886  1
  Si  Si511  1  0.391930  0.179279  0.750054  1
  Si  Si512  1  0.249949  0.108151  0.679259  1
  Si  Si513  1  0.891869  0.179210  0.749891  1
  Si  Si514  1  0.749903  0.108143  0.820769  1
  Si  Si515  1  0.820753  0.250072  0.891860  1
  Si  Si516  1  0.679291  0.108105  0.750071  1
  Si  Si517  1  0.608178  0.250079  0.679269  1
  Si  Si518  1  0.179295  0.108139  0.749911  1
  Si  Si519  1  0.108177  0.250093  0.820761  1
  Si  Si520  1  0.250112  0.179246  0.891877  1
  Si  Si521  1  0.179318  0.391853  0.750136  1
  Si  Si522  1  0.108197  0.249910  0.679260  1
  Si  Si523  1  0.679294  0.391831  0.749945  1
  Si  Si524  1  0.608191  0.249846  0.820797  1
  Si  Si525  1  0.750111  0.320743  0.891911  1
  Si  Si526  1  0.391941  0.320760  0.749853  1
  Si  Si527  1  0.250004  0.391814  0.820757  1
  Si  Si528  1  0.320793  0.249877  0.891853  1
  Si  Si529  1  0.891907  0.320713  0.750093  1
  Si  Si530  1  0.749938  0.391794  0.679280  1
  Si  Si531  1  0.608205  0.320706  0.749954  1
  Si  Si532  1  0.750148  0.391836  0.820792  1
  Si  Si533  1  0.679262  0.249887  0.891932  1
  Si  Si534  1  0.108201  0.320756  0.750115  1
  Si  Si535  1  0.250146  0.391844  0.679265  1
  Si  Si536  1  0.320832  0.391861  0.749888  1
  Si  Si537  1  0.391868  0.249924  0.820718  1
  Si  Si538  1  0.249942  0.320733  0.891886  1
  Si  Si539  1  0.820792  0.391812  0.750126  1
  Si  Si540  1  0.891904  0.249867  0.679236  1
  Si  Si541  1  0.820751  0.108117  0.749919  1
  Si  Si542  1  0.891846  0.250057  0.820745  1
  Si  Si543  1  0.749903  0.179217  0.891907  1
  Si  Si544  1  0.320805  0.108189  0.750100  1
  Si  Si545  1  0.391930  0.250113  0.679186  1
  Si  Si546  1  0.550290  0.121500  0.692548  1
  Si  Si547  1  0.050252  0.121520  0.807420  1
  Si  Si548  1  0.192603  0.050258  0.878492  1
  Si  Si549  1  0.121494  0.192575  0.949769  1
  Si  Si550  1  0.449818  0.121516  0.692532  1
  Si  Si551  1  0.949777  0.121484  0.807432  1
  Si  Si552  1  0.807450  0.050246  0.878501  1
  Si  Si553  1  0.878517  0.192578  0.949776  1
  Si  Si554  1  0.621547  0.050213  0.692532  1
  Si  Si555  1  0.121537  0.050260  0.807444  1
  Si  Si556  1  0.050241  0.192578  0.878480  1
  Si  Si557  1  0.192558  0.121520  0.949770  1
  Si  Si558  1  0.121557  0.449760  0.692630  1
  Si  Si559  1  0.621555  0.449717  0.807491  1
  Si  Si560  1  0.550257  0.307367  0.878517  1
  Si  Si561  1  0.692595  0.378497  0.949814  1
  Si  Si562  1  0.449817  0.378470  0.807442  1
  Si  Si563  1  0.307496  0.449729  0.878524  1
  Si  Si564  1  0.378522  0.307396  0.949779  1
  Si  Si565  1  0.949811  0.378463  0.692575  1
  Si  Si566  1  0.550288  0.378441  0.807475  1
  Si  Si567  1  0.692632  0.449752  0.878530  1
  Si  Si568  1  0.621518  0.307454  0.949795  1
  Si  Si569  1  0.050285  0.378489  0.692591  1
  Si  Si570  1  0.378548  0.449745  0.807463  1
  Si  Si571  1  0.449780  0.307407  0.878497  1
  Si  Si572  1  0.307468  0.378465  0.949802  1
  Si  Si573  1  0.878520  0.449713  0.692581  1
  Si  Si574  1  0.878503  0.050214  0.807440  1
  O  O575  1  0.300480  0.499966  0.887016  1
  O  O576  1  0.800460  0.000008  0.886992  1
  O  O577  1  0.113019  0.000022  0.800490  1
  O  O578  1  0.387024  0.499989  0.800496  1
  O  O579  1  0.569937  0.650446  0.230737  1
  O  O580  1  0.730787  0.569910  0.150403  1
  O  O581  1  0.650427  0.730788  0.069862  1
  O  O582  1  0.069940  0.650451  0.269276  1
  O  O583  1  0.430128  0.650430  0.230778  1
  O  O584  1  0.269251  0.569878  0.150440  1
  O  O585  1  0.349603  0.730768  0.069916  1
  O  O586  1  0.930140  0.650440  0.269239  1
  O  O587  1  0.650436  0.569912  0.230768  1
  O  O588  1  0.569909  0.730796  0.150399  1
  O  O589  1  0.730750  0.650412  0.069883  1
  O  O590  1  0.150446  0.569919  0.269284  1
  O  O591  1  0.150384  0.930157  0.230800  1
  O  O592  1  0.069944  0.769246  0.150444  1
  O  O593  1  0.230798  0.849620  0.069933  1
  O  O594  1  0.650414  0.930103  0.269254  1
  O  O595  1  0.430090  0.849604  0.269289  1
  O  O596  1  0.930084  0.849552  0.230709  1
  O  O597  1  0.769232  0.930107  0.150410  1
  O  O598  1  0.849612  0.769243  0.069825  1
  O  O599  1  0.569866  0.849593  0.269249  1
  O  O600  1  0.069872  0.849596  0.230789  1
  O  O601  1  0.230737  0.930135  0.150459  1
  O  O602  1  0.150461  0.769242  0.069933  1
  O  O603  1  0.349578  0.930119  0.269285  1
  O  O604  1  0.849596  0.930086  0.230768  1
  O  O605  1  0.930123  0.769198  0.150375  1
  O  O606  1  0.769289  0.849613  0.069880  1
  O  O607  1  0.849618  0.569916  0.269227  1
  O  O608  1  0.349618  0.569906  0.230781  1
  O  O609  1  0.430137  0.730792  0.150431  1
  O  O610  1  0.269263  0.650419  0.069929  1
  O  O611  1  0.711987  0.712014  0.119591  1
  O  O612  1  0.619664  0.712025  0.211943  1
  O  O613  1  0.712013  0.619638  0.211962  1
  O  O614  1  0.119674  0.712020  0.288069  1
  O  O615  1  0.212022  0.619645  0.288067  1
  O  O616  1  0.288055  0.711994  0.119660  1
  O  O617  1  0.380406  0.712003  0.211995  1
  O  O618  1  0.288036  0.619612  0.212007  1
  O  O619  1  0.880395  0.711995  0.288027  1
  O  O620  1  0.788042  0.619648  0.288007  1
  O  O621  1  0.212032  0.788050  0.119657  1
  O  O622  1  0.211957  0.880418  0.212031  1
  O  O623  1  0.119646  0.788068  0.212034  1
  O  O624  1  0.711982  0.880368  0.288032  1
  O  O625  1  0.619615  0.788038  0.288013  1
  O  O626  1  0.380364  0.788027  0.288052  1
  O  O627  1  0.288004  0.880387  0.288068  1
  O  O628  1  0.788060  0.788021  0.119576  1
  O  O629  1  0.880357  0.787990  0.211924  1
  O  O630  1  0.788010  0.880383  0.211985  1
  O  O631  1  0.902841  0.708559  0.208546  1
  O  O632  1  0.708561  0.902821  0.208566  1
  O  O633  1  0.208608  0.708582  0.097218  1
  O  O634  1  0.402833  0.708574  0.291455  1
  O  O635  1  0.208551  0.902866  0.291488  1
  O  O636  1  0.097225  0.708605  0.208613  1
  O  O637  1  0.291412  0.902868  0.208623  1
  O  O638  1  0.791432  0.708574  0.097097  1
  O  O639  1  0.597207  0.708584  0.291408  1
  O  O640  1  0.791432  0.902824  0.291447  1
  O  O641  1  0.208589  0.597175  0.208606  1
  O  O642  1  0.402845  0.791463  0.208602  1
  O  O643  1  0.708603  0.791463  0.097122  1
  O  O644  1  0.708592  0.597205  0.291429  1
  O  O645  1  0.902831  0.791431  0.291397  1
  O  O646  1  0.291474  0.791467  0.097206  1
  O  O647  1  0.097192  0.791469  0.291493  1
  O  O648  1  0.291468  0.597184  0.291474  1
  O  O649  1  0.597165  0.791465  0.208550  1
  O  O650  1  0.791465  0.597197  0.208545  1
  O  O651  1  0.648417  0.648409  0.258252  1
  O  O652  1  0.758301  0.648401  0.148347  1
  O  O653  1  0.648381  0.758355  0.148325  1
  O  O654  1  0.148419  0.648403  0.241760  1
  O  O655  1  0.351640  0.648389  0.258291  1
  O  O656  1  0.241742  0.648369  0.148404  1
  O  O657  1  0.351666  0.758316  0.148390  1
  O  O658  1  0.851653  0.648390  0.241713  1
  O  O659  1  0.148343  0.851694  0.258347  1
  O  O660  1  0.148436  0.741761  0.148432  1
  O  O661  1  0.258301  0.851666  0.148422  1
  O  O662  1  0.648356  0.851643  0.241717  1
  O  O663  1  0.351614  0.851645  0.241748  1
  O  O664  1  0.851608  0.851601  0.258261  1
  O  O665  1  0.741742  0.851623  0.148361  1
  O  O666  1  0.851653  0.741669  0.148293  1
  O  O667  1  0.650069  0.650080  0.055580  1
  O  O668  1  0.555589  0.650097  0.150066  1
  O  O669  1  0.650093  0.555568  0.150095  1
  O  O670  1  0.349941  0.650067  0.055599  1
  O  O671  1  0.444457  0.650101  0.150093  1
  O  O672  1  0.349941  0.555579  0.150090  1
  O  O673  1  0.150106  0.849921  0.055599  1
  O  O674  1  0.150043  0.944440  0.150108  1
  O  O675  1  0.055579  0.849919  0.150085  1
  O  O676  1  0.849982  0.849944  0.055555  1
  O  O677  1  0.944445  0.849882  0.150028  1
  O  O678  1  0.849918  0.944426  0.150084  1
  O  O679  1  0.579154  0.579150  0.188696  1
  O  O680  1  0.688686  0.579126  0.079144  1
  O  O681  1  0.579137  0.688727  0.079127  1
  O  O682  1  0.079159  0.579156  0.311331  1
  O  O683  1  0.420893  0.579159  0.188698  1
  O  O684  1  0.311307  0.579118  0.079154  1
  O  O685  1  0.420881  0.688706  0.079152  1
  O  O686  1  0.920907  0.579162  0.311298  1
  O  O687  1  0.079104  0.920872  0.188719  1
  O  O688  1  0.079168  0.811293  0.079151  1
  O  O689  1  0.188684  0.920874  0.079172  1
  O  O690  1  0.579120  0.920859  0.311320  1
  O  O691  1  0.420860  0.920880  0.311357  1
  O  O692  1  0.920856  0.920827  0.188651  1
  O  O693  1  0.811334  0.920889  0.079130  1
  O  O694  1  0.920920  0.811262  0.079084  1
  O  O695  1  0.500029  0.613046  0.199557  1
  Si  Si696  1  0.307444  0.621504  0.050266  1
  O  O697  1  0.000038  0.613055  0.300461  1
  O  O698  1  0.613014  0.699534  0.000001  1
  O  O699  1  0.199562  0.886999  0.000039  1
  O  O700  1  0.500013  0.699572  0.113018  1
  O  O701  1  0.113054  0.500022  0.300487  1
  O  O702  1  0.000040  0.800408  0.113015  1
  O  O703  1  0.499985  0.886986  0.300502  1
  O  O704  1  0.999982  0.886957  0.199526  1
  O  O705  1  0.386985  0.699545  0.000027  1
  O  O706  1  0.300461  0.613015  0.000031  1
  Si  Si707  1  0.608190  0.679287  0.250059  1
  Si  Si708  1  0.750127  0.608169  0.179227  1
  Si  Si709  1  0.679263  0.750140  0.108104  1
  Si  Si710  1  0.108196  0.679287  0.249950  1
  Si  Si711  1  0.250136  0.608162  0.320800  1
  Si  Si712  1  0.391872  0.679263  0.250109  1
  Si  Si713  1  0.249921  0.608133  0.179276  1
  Si  Si714  1  0.320783  0.750116  0.108171  1
  Si  Si715  1  0.891880  0.679267  0.249905  1
  Si  Si716  1  0.749929  0.608179  0.320746  1
  Si  Si717  1  0.679284  0.608167  0.250083  1
  Si  Si718  1  0.608166  0.750144  0.179216  1
  Si  Si719  1  0.750095  0.679266  0.108112  1
  Si  Si720  1  0.179288  0.608167  0.249950  1
  Si  Si721  1  0.108190  0.750132  0.320806  1
  Si  Si722  1  0.179228  0.891914  0.250148  1
  Si  Si723  1  0.108197  0.749944  0.179297  1
  Si  Si724  1  0.250142  0.820792  0.108185  1
  Si  Si725  1  0.679253  0.891854  0.249913  1
  Si  Si726  1  0.608163  0.749913  0.320744  1
  Si  Si727  1  0.391845  0.820769  0.249942  1
  Si  Si728  1  0.249886  0.891861  0.320801  1
  Si  Si729  1  0.891831  0.820722  0.250048  1
  Si  Si730  1  0.749899  0.891853  0.179247  1
  Si  Si731  1  0.820778  0.749895  0.108070  1
  Si  Si732  1  0.608123  0.820771  0.249900  1
  Si  Si733  1  0.750094  0.891854  0.320769  1
  Si  Si734  1  0.108136  0.820792  0.250150  1
  Si  Si735  1  0.250078  0.891890  0.179300  1
  Si  Si736  1  0.179300  0.749929  0.108191  1
  Si  Si737  1  0.320734  0.891872  0.249951  1
  Si  Si738  1  0.391849  0.749905  0.320780  1
  Si  Si739  1  0.820742  0.891846  0.250104  1
  Si  Si740  1  0.891858  0.749872  0.179197  1
  Si  Si741  1  0.749946  0.820768  0.108118  1
  Si  Si742  1  0.820773  0.608163  0.249891  1
  Si  Si743  1  0.891873  0.750118  0.320755  1
  Si  Si744  1  0.320772  0.608148  0.250123  1
  Si  Si745  1  0.391889  0.750128  0.179271  1
  Si  Si746  1  0.249940  0.679255  0.108185  1
  Si  Si747  1  0.550266  0.621534  0.192561  1
  Si  Si748  1  0.692582  0.550242  0.121525  1
  Si  Si749  1  0.621516  0.692583  0.050236  1
  Si  Si750  1  0.050274  0.621542  0.307457  1
  Si  Si751  1  0.449790  0.621535  0.192583  1
  Si  Si752  1  0.307445  0.550228  0.121534  1
  Si  Si753  1  0.378500  0.692567  0.050263  1
  Si  Si754  1  0.949800  0.621543  0.307434  1
  Si  Si755  1  0.621526  0.550250  0.192585  1
  Si  Si756  1  0.550251  0.692596  0.121506  1
  Si  Si757  1  0.692555  0.621502  0.050244  1
  Si  Si758  1  0.121539  0.550262  0.307471  1
  Si  Si759  1  0.121473  0.949779  0.192595  1
  Si  Si760  1  0.050272  0.807418  0.121524  1
  Si  Si761  1  0.192589  0.878502  0.050274  1
  Si  Si762  1  0.621502  0.949745  0.307446  1
  Si  Si763  1  0.449748  0.878496  0.307486  1
  Si  Si764  1  0.949751  0.878450  0.192521  1
  Si  Si765  1  0.807431  0.949765  0.121516  1
  Si  Si766  1  0.878533  0.807439  0.050196  1
  Si  Si767  1  0.550222  0.878482  0.307459  1
  Si  Si768  1  0.050225  0.878482  0.192577  1
  Si  Si769  1  0.192539  0.949770  0.121547  1
  Si  Si770  1  0.121549  0.807422  0.050263  1
  Si  Si771  1  0.378484  0.949774  0.307473  1
  Si  Si772  1  0.878493  0.949735  0.192569  1
  Si  Si773  1  0.949795  0.807383  0.121472  1
  Si  Si774  1  0.807486  0.878512  0.050229  1
  Si  Si775  1  0.878526  0.550271  0.307421  1
  Si  Si776  1  0.378516  0.550264  0.192577  1
  Si  Si777  1  0.449778  0.692594  0.121523  1
  O  O778  1  0.113055  0.800443  0.000028  1
  O  O779  1  0.699565  0.500002  0.113043  1
  O  O780  1  0.613020  0.500012  0.199574  1
  O  O781  1  0.699536  0.613000  0.000011  1
  O  O782  1  0.613000  0.999984  0.300466  1
  O  O783  1  0.887016  0.999970  0.199557  1
  O  O784  1  0.887015  0.500029  0.300457  1
  O  O785  1  0.387031  0.500028  0.199551  1
  O  O786  1  0.230782  0.569896  0.650472  1
  O  O787  1  0.150388  0.730753  0.569951  1
  O  O788  1  0.230789  0.569914  0.349634  1
  O  O789  1  0.150426  0.730766  0.430178  1
  O  O790  1  0.769220  0.569806  0.650408  1
  O  O791  1  0.849566  0.730694  0.569908  1
  O  O792  1  0.769268  0.569926  0.349577  1
  O  O793  1  0.849627  0.730785  0.430125  1
  O  O794  1  0.069857  0.730748  0.650467  1
  O  O795  1  0.230749  0.650422  0.569956  1
  O  O796  1  0.069940  0.730789  0.349634  1
  O  O797  1  0.230782  0.650412  0.430182  1
  O  O798  1  0.569860  0.769202  0.650452  1
  O  O799  1  0.730733  0.849492  0.569935  1
  O  O800  1  0.569906  0.769224  0.349588  1
  O  O801  1  0.730750  0.849582  0.430143  1
  O  O802  1  0.269232  0.930102  0.349643  1
  O  O803  1  0.349608  0.769242  0.430156  1
  O  O804  1  0.269250  0.930119  0.650469  1
  O  O805  1  0.349564  0.769257  0.569946  1
  O  O806  1  0.730742  0.930093  0.349612  1
  O  O807  1  0.650410  0.769214  0.430109  1
  O  O808  1  0.730765  0.930029  0.650430  1
  O  O809  1  0.650383  0.769140  0.569926  1
  O  O810  1  0.430100  0.769237  0.349614  1
  O  O811  1  0.269264  0.849597  0.430155  1
  O  O812  1  0.430084  0.769277  0.650447  1
  O  O813  1  0.269198  0.849607  0.569937  1
  O  O814  1  0.930134  0.730793  0.349586  1
  O  O815  1  0.769271  0.650436  0.430111  1
  O  O816  1  0.930076  0.730706  0.650432  1
  O  O817  1  0.769225  0.650334  0.569885  1
  O  O818  1  0.211957  0.711991  0.619684  1
  O  O819  1  0.212001  0.711978  0.380455  1
  O  O820  1  0.787992  0.711883  0.619629  1
  O  O821  1  0.788055  0.712015  0.380397  1
  O  O822  1  0.711945  0.787921  0.619667  1
  O  O823  1  0.711996  0.788033  0.380402  1
  O  O824  1  0.288040  0.788026  0.380429  1
  O  O825  1  0.287978  0.788047  0.619665  1
  O  O826  1  0.708590  0.708581  0.402832  1
  O  O827  1  0.708529  0.708470  0.597191  1
  O  O828  1  0.291454  0.708570  0.402903  1
  O  O829  1  0.291410  0.708590  0.597226  1
  O  O830  1  0.208596  0.791433  0.402912  1
  O  O831  1  0.208520  0.791450  0.597226  1
  O  O832  1  0.791397  0.791344  0.597204  1
  O  O833  1  0.791457  0.791457  0.402867  1
  O  O834  1  0.258284  0.648386  0.648430  1
  O  O835  1  0.148335  0.758278  0.648426  1
  O  O836  1  0.258322  0.648379  0.351695  1
  O  O837  1  0.148411  0.758312  0.351695  1
  O  O838  1  0.741682  0.648269  0.648363  1
  O  O839  1  0.851589  0.758194  0.648398  1
  O  O840  1  0.741752  0.648408  0.351626  1
  O  O841  1  0.851658  0.758324  0.351646  1
  O  O842  1  0.648328  0.741626  0.648407  1
  O  O843  1  0.758254  0.851535  0.648421  1
  O  O844  1  0.648400  0.741734  0.351613  1
  O  O845  1  0.758297  0.851640  0.351661  1
  O  O846  1  0.241705  0.851630  0.351680  1
  O  O847  1  0.351634  0.741706  0.351671  1
  O  O848  1  0.241686  0.851652  0.648424  1
  O  O849  1  0.351596  0.741761  0.648428  1
  O  O850  1  0.150062  0.650060  0.555634  1
  O  O851  1  0.055558  0.650054  0.650123  1
  O  O852  1  0.150101  0.555560  0.650135  1
  O  O853  1  0.150086  0.650080  0.444492  1
  O  O854  1  0.055603  0.650100  0.349954  1
  O  O855  1  0.150096  0.555598  0.349967  1
  O  O856  1  0.849925  0.650015  0.555570  1
  O  O857  1  0.944423  0.650020  0.650084  1
  O  O858  1  0.849913  0.555513  0.650067  1
  O  O859  1  0.849960  0.650092  0.444428  1
  O  O860  1  0.944468  0.650108  0.349926  1
  O  O861  1  0.849959  0.555604  0.349910  1
  O  O862  1  0.650055  0.849829  0.555598  1
  O  O863  1  0.650090  0.944387  0.650096  1
  O  O864  1  0.555579  0.849896  0.650095  1
  O  O865  1  0.650051  0.849886  0.444470  1
  O  O866  1  0.650055  0.944404  0.349944  1
  O  O867  1  0.555568  0.849909  0.349945  1
  O  O868  1  0.349951  0.849934  0.444480  1
  O  O869  1  0.444422  0.849924  0.349975  1
  O  O870  1  0.349921  0.944441  0.349965  1
  O  O871  1  0.349896  0.849930  0.555615  1
  O  O872  1  0.444434  0.849965  0.650112  1
  O  O873  1  0.349943  0.944435  0.650129  1
  O  O874  1  0.188711  0.579124  0.579193  1
  O  O875  1  0.079113  0.688679  0.579184  1
  O  O876  1  0.188710  0.579146  0.420921  1
  O  O877  1  0.079147  0.688705  0.420911  1
  O  O878  1  0.811295  0.579061  0.579117  1
  O  O879  1  0.920859  0.688646  0.579144  1
  O  O880  1  0.811343  0.579162  0.420851  1
  O  O881  1  0.920907  0.688722  0.420873  1
  O  O882  1  0.579111  0.811229  0.579153  1
  O  O883  1  0.688675  0.920775  0.579166  1
  O  O884  1  0.579119  0.811265  0.420889  1
  O  O885  1  0.688659  0.920836  0.420900  1
  O  O886  1  0.311322  0.920879  0.420917  1
  O  O887  1  0.420892  0.811288  0.420918  1
  O  O888  1  0.311304  0.920868  0.579185  1
  O  O889  1  0.420849  0.811341  0.579176  1
  O  O890  1  0.113008  0.699532  0.500057  1
  O  O891  1  0.199562  0.500031  0.387033  1
  O  O892  1  0.699569  0.999923  0.612995  1
  O  O893  1  0.887000  0.699524  0.500014  1
  Si  Si894  1  0.807433  0.621448  0.550230  1
  Si  Si895  1  0.807465  0.621528  0.449759  1
  Si  Si896  1  0.949743  0.692520  0.621526  1
  O  O897  1  0.199546  0.613014  0.500066  1
  O  O898  1  0.999981  0.699514  0.613051  1
  O  O899  1  0.000031  0.699583  0.386991  1
  O  O900  1  0.699520  0.886922  0.500040  1
  O  O901  1  0.499981  0.800458  0.613050  1
  O  O902  1  0.500003  0.800425  0.386990  1
  O  O903  1  0.386983  0.800460  0.500053  1
  O  O904  1  0.613005  0.800371  0.500021  1
  O  O905  1  0.300454  0.886994  0.500046  1
  O  O906  1  0.800477  0.612992  0.499986  1
  Si  Si907  1  0.179215  0.750100  0.608201  1
  Si  Si908  1  0.179270  0.750100  0.391933  1
  Si  Si909  1  0.820723  0.750007  0.608163  1
  Si  Si910  1  0.820790  0.750130  0.391881  1
  Si  Si911  1  0.250080  0.679262  0.608205  1
  Si  Si912  1  0.250121  0.679245  0.391930  1
  Si  Si913  1  0.750061  0.820659  0.608192  1
  Si  Si914  1  0.750110  0.820766  0.391892  1
  Si  Si915  1  0.320772  0.749906  0.391909  1
  Si  Si916  1  0.320721  0.749935  0.608197  1
  Si  Si917  1  0.679261  0.749911  0.391856  1
  Si  Si918  1  0.679210  0.749805  0.608182  1
  Si  Si919  1  0.249922  0.820760  0.391911  1
  Si  Si920  1  0.249857  0.820777  0.608191  1
  Si  Si921  1  0.749938  0.679276  0.391862  1
  Si  Si922  1  0.749874  0.679151  0.608142  1
  Si  Si923  1  0.192594  0.550233  0.621569  1
  Si  Si924  1  0.121493  0.692553  0.550295  1
  Si  Si925  1  0.192588  0.550269  0.378535  1
  Si  Si926  1  0.121515  0.692571  0.449822  1
  Si  Si927  1  0.807422  0.550173  0.621499  1
  Si  Si928  1  0.878485  0.692516  0.550243  1
  Si  Si929  1  0.807466  0.550273  0.378475  1
  Si  Si930  1  0.878529  0.692583  0.449770  1
  Si  Si931  1  0.050218  0.692549  0.621559  1
  Si  Si932  1  0.192565  0.621506  0.550301  1
  Si  Si933  1  0.050272  0.692593  0.378523  1
  Si  Si934  1  0.192579  0.621514  0.449831  1
  Si  Si935  1  0.550224  0.807398  0.621537  1
  Si  Si936  1  0.692546  0.878398  0.550271  1
  Si  Si937  1  0.550241  0.807406  0.378501  1
  Si  Si938  1  0.692539  0.878460  0.449800  1
  Si  Si939  1  0.307430  0.949760  0.378533  1
  Si  Si940  1  0.378512  0.807435  0.449813  1
  Si  Si941  1  0.307448  0.949759  0.621563  1
  Si  Si942  1  0.378472  0.807445  0.550285  1
  Si  Si943  1  0.692541  0.949727  0.378521  1
  Si  Si944  1  0.621493  0.807385  0.449788  1
  Si  Si945  1  0.692579  0.949689  0.621523  1
  Si  Si946  1  0.621488  0.807336  0.550261  1
  Si  Si947  1  0.449764  0.807419  0.378525  1
  Si  Si948  1  0.307456  0.878499  0.449813  1
  Si  Si949  1  0.449748  0.807467  0.621547  1
  Si  Si950  1  0.307405  0.878497  0.550284  1
  Si  Si951  1  0.949794  0.692603  0.378492  1
  O  O952  1  0.699508  0.999967  0.387024  1
  O  O953  1  0.800486  0.500037  0.386990  1
  O  O954  1  0.300479  0.999995  0.613054  1
  O  O955  1  0.069871  0.650384  0.730813  1
  O  O956  1  0.569861  0.650356  0.769278  1
  O  O957  1  0.730751  0.569899  0.849587  1
  O  O958  1  0.650405  0.730742  0.930116  1
  O  O959  1  0.930104  0.650341  0.730772  1
  O  O960  1  0.430113  0.650420  0.769259  1
  O  O961  1  0.269249  0.569876  0.849633  1
  O  O962  1  0.349594  0.730772  0.930137  1
  O  O963  1  0.150426  0.569898  0.730820  1
  O  O964  1  0.650387  0.569839  0.769258  1
  O  O965  1  0.569882  0.730719  0.849612  1
  O  O966  1  0.730770  0.650392  0.930115  1
  O  O967  1  0.650412  0.930085  0.730788  1
  O  O968  1  0.150400  0.930131  0.769287  1
  O  O969  1  0.069916  0.769253  0.849622  1
  O  O970  1  0.230773  0.849606  0.930146  1
  O  O971  1  0.930095  0.849551  0.769222  1
  O  O972  1  0.769228  0.930113  0.849605  1
  O  O973  1  0.849603  0.769237  0.930096  1
  O  O974  1  0.430128  0.849620  0.730802  1
  O  O975  1  0.069905  0.849600  0.769272  1
  O  O976  1  0.230751  0.930128  0.849636  1
  O  O977  1  0.150430  0.769244  0.930130  1
  O  O978  1  0.569890  0.849559  0.730786  1
  O  O979  1  0.849578  0.930066  0.769252  1
  O  O980  1  0.930141  0.769192  0.849582  1
  O  O981  1  0.769250  0.849571  0.930126  1
  O  O982  1  0.349593  0.930140  0.730816  1
  O  O983  1  0.349598  0.569879  0.769277  1
  O  O984  1  0.430113  0.730769  0.849615  1
  O  O985  1  0.269255  0.650411  0.930137  1
  O  O986  1  0.849571  0.569833  0.730757  1
  O  O987  1  0.119587  0.711964  0.712031  1
  O  O988  1  0.211987  0.619632  0.712040  1
  O  O989  1  0.711982  0.711966  0.880399  1
  O  O990  1  0.619604  0.711921  0.788048  1
  O  O991  1  0.711946  0.619600  0.788005  1
  O  O992  1  0.880369  0.711911  0.712008  1
  O  O993  1  0.787996  0.619547  0.711973  1
  O  O994  1  0.288040  0.711994  0.880408  1
  O  O995  1  0.380391  0.712000  0.788038  1
  O  O996  1  0.288046  0.619616  0.788068  1
  O  O997  1  0.711962  0.880329  0.712021  1
  O  O998  1  0.619607  0.787976  0.712012  1
  O  O999  1  0.211996  0.788032  0.880411  1
  O  O1000  1  0.211972  0.880406  0.788068  1
  O  O1001  1  0.119636  0.788024  0.788053  1
  O  O1002  1  0.788025  0.787998  0.880381  1
  O  O1003  1  0.880394  0.787954  0.788035  1
  O  O1004  1  0.788002  0.880354  0.788061  1
  O  O1005  1  0.380378  0.788064  0.712026  1
  O  O1006  1  0.288024  0.880393  0.712037  1
  O  O1007  1  0.208588  0.708572  0.902862  1
  O  O1008  1  0.402826  0.708595  0.708589  1
  O  O1009  1  0.208570  0.902867  0.708622  1
  O  O1010  1  0.902842  0.708492  0.791453  1
  O  O1011  1  0.708548  0.902813  0.791469  1
  O  O1012  1  0.791442  0.708547  0.902842  1
  O  O1013  1  0.597111  0.708526  0.708609  1
  O  O1014  1  0.791420  0.902762  0.708596  1
  O  O1015  1  0.097154  0.708564  0.791479  1
  O  O1016  1  0.291432  0.902865  0.791484  1
  O  O1017  1  0.708568  0.791415  0.902855  1
  O  O1018  1  0.708533  0.597088  0.708568  1
  O  O1019  1  0.902793  0.791379  0.708575  1
  O  O1020  1  0.208580  0.597175  0.791488  1
  O  O1021  1  0.402855  0.791458  0.791468  1
  O  O1022  1  0.597150  0.791388  0.791458  1
  O  O1023  1  0.791406  0.597138  0.791429  1
  O  O1024  1  0.291450  0.791454  0.902863  1
  O  O1025  1  0.097155  0.791434  0.708615  1
  O  O1026  1  0.291447  0.597175  0.708615  1
  O  O1027  1  0.148359  0.648370  0.758344  1
  O  O1028  1  0.648321  0.648305  0.741700  1
  O  O1029  1  0.758270  0.648374  0.851616  1
  O  O1030  1  0.648366  0.758255  0.851643  1
  O  O1031  1  0.851619  0.648305  0.758292  1
  O  O1032  1  0.351645  0.648376  0.741744  1
  O  O1033  1  0.241742  0.648373  0.851666  1
  O  O1034  1  0.351644  0.758308  0.851655  1
  O  O1035  1  0.648353  0.851598  0.758331  1
  O  O1036  1  0.148375  0.851647  0.741747  1
  O  O1037  1  0.148389  0.741711  0.851656  1
  O  O1038  1  0.258290  0.851652  0.851669  1
  O  O1039  1  0.851598  0.851563  0.741762  1
  O  O1040  1  0.741700  0.851621  0.851669  1
  O  O1041  1  0.851651  0.741666  0.851644  1
  O  O1042  1  0.351649  0.851670  0.758351  1
  O  O1043  1  0.650078  0.650053  0.944436  1
  O  O1044  1  0.555548  0.650026  0.849963  1
  O  O1045  1  0.650072  0.555541  0.849949  1
  O  O1046  1  0.349928  0.650069  0.944458  1
  O  O1047  1  0.444410  0.650076  0.849949  1
  O  O1048  1  0.349929  0.555543  0.849968  1
  O  O1049  1  0.150091  0.849935  0.944468  1
  O  O1050  1  0.150058  0.944451  0.849975  1
  O  O1051  1  0.055575  0.849945  0.849951  1
  O  O1052  1  0.849940  0.849937  0.944398  1
  O  O1053  1  0.944446  0.849894  0.849891  1
  O  O1054  1  0.849923  0.944423  0.849930  1
  O  O1055  1  0.079147  0.579115  0.688736  1
  O  O1056  1  0.579111  0.579074  0.811343  1
  O  O1057  1  0.688703  0.579113  0.920882  1
  O  O1058  1  0.579121  0.688661  0.920889  1
  O  O1059  1  0.920858  0.579077  0.688688  1
  O  O1060  1  0.420855  0.579131  0.811345  1
  O  O1061  1  0.311311  0.579108  0.920910  1
  O  O1062  1  0.420862  0.688696  0.920897  1
  O  O1063  1  0.579148  0.920842  0.688710  1
  O  O1064  1  0.079112  0.920894  0.811334  1
  O  O1065  1  0.079149  0.811320  0.920900  1
  O  O1066  1  0.188694  0.920891  0.920916  1
  O  O1067  1  0.920863  0.920840  0.811298  1
  O  O1068  1  0.811297  0.920878  0.920871  1
  O  O1069  1  0.920883  0.811308  0.920830  1
  O  O1070  1  0.420891  0.920906  0.688757  1
  Si  Si1071  1  0.121529  0.807437  0.949791  1
  O  O1072  1  0.999996  0.612958  0.699560  1
  O  O1073  1  0.499977  0.612977  0.800497  1
  Si  Si1074  1  0.878477  0.550189  0.692561  1
  Si  Si1075  1  0.550252  0.878466  0.692587  1
  Si  Si1076  1  0.807443  0.878494  0.949758  1
  Si  Si1077  1  0.307439  0.621497  0.949794  1
  Si  Si1078  1  0.449750  0.692566  0.878519  1
  Si  Si1079  1  0.378492  0.550221  0.807475  1
  O  O1080  1  0.613033  0.999980  0.699533  1
  Si  Si1081  1  0.378502  0.949786  0.692623  1
  O  O1082  1  0.499989  0.699523  0.887015  1
  Si  Si1083  1  0.949786  0.807408  0.878465  1
  O  O1084  1  0.000021  0.800454  0.886990  1
  Si  Si1085  1  0.050234  0.878503  0.807454  1
  O  O1086  1  0.999997  0.886970  0.800439  1
  O  O1087  1  0.500022  0.886993  0.699570  1
  Si  Si1088  1  0.878485  0.949735  0.807434  1
  Si  Si1089  1  0.192556  0.949781  0.878536  1
  O  O1090  1  0.886981  0.999973  0.800451  1
  Si  Si1091  1  0.108117  0.679230  0.750150  1
  Si  Si1092  1  0.250105  0.608154  0.679307  1
  Si  Si1093  1  0.608105  0.679192  0.749929  1
  Si  Si1094  1  0.750071  0.608146  0.820738  1
  Si  Si1095  1  0.679244  0.750081  0.891872  1
  Si  Si1096  1  0.891856  0.679175  0.750118  1
  Si  Si1097  1  0.749875  0.608050  0.679249  1
  Si  Si1098  1  0.391867  0.679265  0.749921  1
  Si  Si1099  1  0.249926  0.608136  0.820797  1
  Si  Si1100  1  0.320770  0.750117  0.891884  1
  Si  Si1101  1  0.179256  0.608153  0.750158  1
  Si  Si1102  1  0.108109  0.750085  0.679302  1
  Si  Si1103  1  0.679213  0.608087  0.749898  1
  Si  Si1104  1  0.608133  0.750050  0.820774  1
  Si  Si1105  1  0.750101  0.679231  0.891865  1
  Si  Si1106  1  0.679233  0.891827  0.750135  1
  Si  Si1107  1  0.608107  0.749856  0.679285  1
  Si  Si1108  1  0.179242  0.891885  0.749949  1
  Si  Si1109  1  0.108156  0.749905  0.820786  1
  Si  Si1110  1  0.250108  0.820771  0.891895  1
  Si  Si1111  1  0.891840  0.820695  0.749918  1
  Si  Si1112  1  0.749886  0.891849  0.820788  1
  Si  Si1113  1  0.820765  0.749882  0.891858  1
  Si  Si1114  1  0.391874  0.820791  0.750144  1
  Si  Si1115  1  0.249904  0.891873  0.679306  1
  Si  Si1116  1  0.108153  0.820760  0.749939  1
  Si  Si1117  1  0.250093  0.891883  0.820797  1
  Si  Si1118  1  0.179266  0.749908  0.891882  1
  Si  Si1119  1  0.608131  0.820714  0.750128  1
  Si  Si1120  1  0.750082  0.891780  0.679283  1
  Si  Si1121  1  0.820735  0.891806  0.749938  1
  Si  Si1122  1  0.891882  0.749839  0.820766  1
  Si  Si1123  1  0.749909  0.820731  0.891881  1
  Si  Si1124  1  0.320756  0.891887  0.750153  1
  Si  Si1125  1  0.391838  0.749944  0.679288  1
  Si  Si1126  1  0.320773  0.608143  0.749945  1
  Si  Si1127  1  0.391870  0.750114  0.820776  1
  Si  Si1128  1  0.249928  0.679254  0.891889  1
  Si  Si1129  1  0.820732  0.608085  0.750092  1
  Si  Si1130  1  0.891824  0.750030  0.679270  1
  Si  Si1131  1  0.050233  0.621481  0.692609  1
  Si  Si1132  1  0.550216  0.621454  0.807475  1
  Si  Si1133  1  0.692577  0.550229  0.878500  1
  Si  Si1134  1  0.621506  0.692544  0.949769  1
  Si  Si1135  1  0.949759  0.621449  0.692572  1
  Si  Si1136  1  0.449745  0.621509  0.807459  1
  Si  Si1137  1  0.307438  0.550211  0.878535  1
  Si  Si1138  1  0.378487  0.692569  0.949792  1
  Si  Si1139  1  0.121533  0.550236  0.692625  1
  Si  Si1140  1  0.621498  0.550193  0.807465  1
  Si  Si1141  1  0.550223  0.692530  0.878517  1
  Si  Si1142  1  0.692574  0.621492  0.949774  1
  Si  Si1143  1  0.621524  0.949737  0.692583  1
  Si  Si1144  1  0.121497  0.949783  0.807479  1
  Si  Si1145  1  0.050260  0.807450  0.878519  1
  Si  Si1146  1  0.192579  0.878507  0.949804  1
  Si  Si1147  1  0.949760  0.878464  0.807403  1
  Si  Si1148  1  0.807430  0.949769  0.878494  1
  Si  Si1149  1  0.878509  0.807443  0.949727  1
  Si  Si1150  1  0.449780  0.878522  0.692608  1
  O  O1151  1  0.800496  0.886999  0.999995  1
  O  O1152  1  0.887021  0.800481  0.999959  1
